
This summary file was generated by HydroDyn  on 20-Sep-2022 at 10:36:06.

WAMIT Model - Body    1
------------------
  Displaced volume (m^3)                 :     1.775549E+04
  X-offset of the center of buoyancy (m) :     0.000000E+00
  Y-offset of the center of buoyancy (m) :     0.000000E+00


  Buoyancy loads from members modelled with WAMIT, summed about ( 0.0, 0.0, 0.0 )
                                BuoyFxi               BuoyFyi               BuoyFzi               BuoyMxi               BuoyMyi               BuoyMzi 
                                  (N)                   (N)                   (N)                  (N-m)                 (N-m)                 (N-m)  
  External:                 0.000000E+00          0.000000E+00          1.785359E+08          0.000000E+00         -0.000000E+00          0.000000E+00



Strip-Theory Volume Calculations(m^3)
-------------------------------------
  Structure Volume     :    0.00000E+00
  Submerged Volume     :    4.48416E-44
  Marine Growth Volume :    0.00000E+00
  Ballasted Volume     :    0.00000E+00
              NOTE: Structure, Submerged and Marine Growth volumes are based on members not modelled with WAMIT
                      Ballasted volume is computed from all members which are marked as filled in the HydroDyn input file, regardless of PropPot flag



Total Buoyancy loads summed about ( 0.0, 0.0, 0.0 )
---------------------------------------------------
                                BuoyFxi               BuoyFyi               BuoyFzi               BuoyMxi               BuoyMyi               BuoyMzi 
                                  (N)                   (N)                   (N)                  (N-m)                 (N-m)                 (N-m)  
 External:                  0.000000E+00          0.000000E+00          0.000000E+00          0.000000E+00          0.000000E+00          0.000000E+00
 Internal:                  0.000000E+00          0.000000E+00          0.000000E+00          0.000000E+00          0.000000E+00          0.000000E+00
 Total   :                  0.000000E+00          0.000000E+00          0.000000E+00          0.000000E+00          0.000000E+00          0.000000E+00
              NOTE: External buoyancy is based on members not modelled with WAMIT
                      Internal buoyancy is computed from all members which are marked as filled in the HydroDyn input file, regardless of PropPot flag
                    Total buoyancy does not include WAMIT-modelled buoyancy contribution



Weight loads about ( 0.0, 0.0, 0.0 )
------------------------------------
                                 MGFxi                 MGFyi                 MGFzi                 MGMxi                 MGMyi                 MGMzi  
                                  (N)                   (N)                   (N)                  (N-m)                 (N-m)                 (N-m)  
 Marine Growth:             0.000000E+00          0.000000E+00          0.000000E+00          0.000000E+00          0.000000E+00          0.000000E+00



Nodes (first [   2 ] are joints, remainder are internal nodes)


   i      MbrIndx      Nxi         Nyi         Nzi           R          t          tMG        MGDens     PropPot    FilledFlag  FilledMass      Cd          Ca          Cp         AxCd        AxCa        AxCp        JAxCd       JAxCa       JAxCp  
  (-)       (-)        (m)         (m)         (m)          (m)        (m)         (m)       (kg/m^3)      (-)         (-)        (kg)          (-)         (-)         (-)         (-)         (-)         (-)         (-)         (-)         (-)   
     1      -           0.0000      0.0000      0.0000      -           -        0.000E+00   0.000E+00      -           -           -           -           -           -           -           -           -        0.000E+00   0.000E+00   1.000E+00
     2      -           0.0000      0.0000     -1.0000      -           -        0.000E+00   0.000E+00      -           -           -           -           -           -           -           -           -        0.000E+00   0.000E+00   1.000E+00
     3           1      0.0000      0.0000     -0.5000   5.000E+00   5.000E-02   0.000E+00   0.000E+00           T           F   0.000E+00   0.000E+00   0.000E+00   0.000E+00   0.000E+00   0.000E+00   0.000E+00         -           -           -  



 Members


 MemberID  joint1  joint2      Length       NElem         Volume       MGVolume          R1           t1             R2           t2          PropPot      FilledFlag   FillDensity    FillFSLoc     FillMass         Cd1            Ca1          Cp1          AxCd1         AxCa1         AxCp1        JAxCd1        JAxCa1       JAxCp1           Cd2           Ca2           Cp2          AxCd2         AxCa2         AxCp2        JAxCd2        JAxCa2        JAxCp2   
   (-)      (-)     (-)         (m)          (-)          (m^3)         (m^3)            (m)          (m)            (m)          (m)           (-)           (-)        (kg/m^3)         (-)          (kg)           (-)            (-)          (-)           (-)           (-)           (-)           (-)           (-)          (-)            (-)           (-)           (-)           (-)           (-)           (-)           (-)           (-)           (-)    
        1       2       1   1.00000E+00             2   0.00000E+00   0.00000E+00   5.00000E+00   5.00002E-02   5.00000E+00   5.00002E-02             T             F   0.00000E+00   0.00000E+00   0.00000E+00   0.00000E+00   0.00000E+00   0.00000E+00   0.00000E+00   0.00000E+00   0.00000E+00   0.00000E+00   0.00000E+00   1.00000E+00   0.00000E+00   0.00000E+00   0.00000E+00   0.00000E+00   0.00000E+00   0.00000E+00   0.00000E+00   0.00000E+00   1.00000E+00



Requested Member Outputs


   Label         Xi          Yi          Zi       MemberID    StartXi     StartYi     StartZi      EndXi       EndYi       EndZi        Loc    
    (-)          (m)         (m)         (m)        (-)         (m)         (m)         (m)         (m)         (m)         (m)         (-)    



 Requested Joint Outputs


   Label         Xi          Yi          Zi      InpJointID
    (-)          (m)         (m)         (m)        (-)    



Radiation memory effect kernel



      n           t                   K11               K12               K13               K14               K15               K16               K21               K22               K23               K24               K25               K26               K31               K32               K33               K34               K35               K36               K41               K42               K43               K44               K45               K46               K51               K52               K53               K54               K55               K56               K61               K62               K63               K64               K65               K66
     (-)         (s)            (kg/s^2)          (kg/s^2)          (kg/s^2)         (kgm/s^2)         (kgm/s^2)         (kgm/s^2)          (kg/s^2)          (kg/s^2)          (kg/s^2)         (kgm/s^2)         (kgm/s^2)         (kgm/s^2)          (kg/s^2)          (kg/s^2)          (kg/s^2)         (kgm/s^2)         (kgm/s^2)         (kgm/s^2)         (kgm/s^2)         (kgm/s^2)         (kgm/s^2)        (kgm^2/s^2)       (kgm^2/s^2)       (kgm^2/s^2)        (kgm/s^2)         (kgm/s^2)         (kgm/s^2)        (kgm^2/s^2)       (kgm^2/s^2)       (kgm^2/s^2)        (kgm/s^2)         (kgm/s^2)         (kgm/s^2)        (kgm^2/s^2)       (kgm^2/s^2)       (kgm^2/s^2)
          0   0.00000E+00       4.37423E+06       0.00000E+00      -5.70128E+01       0.00000E+00      -1.61391E+07       0.00000E+00       0.00000E+00       4.37458E+06       0.00000E+00       1.61408E+07       0.00000E+00       9.77941E+03      -3.96917E+00       0.00000E+00       1.27926E+06       0.00000E+00       7.53165E+02       0.00000E+00       0.00000E+00       1.62162E+07       0.00000E+00       5.78781E+08       0.00000E+00       1.02082E+05      -1.62151E+07       0.00000E+00       1.07158E+03       0.00000E+00       5.78774E+08       0.00000E+00       0.00000E+00       4.79724E+03       0.00000E+00       1.27367E+05       0.00000E+00       9.45064E+09
          1   0.10000E-01       4.37348E+06       0.00000E+00      -5.69504E+01       0.00000E+00      -1.61375E+07       0.00000E+00       0.00000E+00       4.37382E+06       0.00000E+00       1.61392E+07       0.00000E+00       9.76914E+03      -3.95285E+00       0.00000E+00       1.27920E+06       0.00000E+00       7.53500E+02       0.00000E+00       0.00000E+00       1.62145E+07       0.00000E+00       5.78753E+08       0.00000E+00       1.01987E+05      -1.62134E+07       0.00000E+00       1.07169E+03       0.00000E+00       5.78745E+08       0.00000E+00       0.00000E+00       4.79178E+03       0.00000E+00       1.27245E+05       0.00000E+00       9.44903E+09
          2   0.20000E-01       4.37120E+06       0.00000E+00      -5.67630E+01       0.00000E+00      -1.61326E+07       0.00000E+00       0.00000E+00       4.37155E+06       0.00000E+00       1.61342E+07       0.00000E+00       9.73834E+03      -3.90394E+00       0.00000E+00       1.27902E+06       0.00000E+00       7.54507E+02       0.00000E+00       0.00000E+00       1.62093E+07       0.00000E+00       5.78667E+08       0.00000E+00       1.01701E+05      -1.62082E+07       0.00000E+00       1.07203E+03       0.00000E+00       5.78660E+08       0.00000E+00       0.00000E+00       4.77540E+03       0.00000E+00       1.26879E+05       0.00000E+00       9.44418E+09
          3   0.30000E-01       4.36742E+06       0.00000E+00      -5.64512E+01       0.00000E+00      -1.61244E+07       0.00000E+00       0.00000E+00       4.36776E+06       0.00000E+00       1.61261E+07       0.00000E+00       9.68709E+03      -3.82252E+00       0.00000E+00       1.27871E+06       0.00000E+00       7.56181E+02       0.00000E+00       0.00000E+00       1.62007E+07       0.00000E+00       5.78525E+08       0.00000E+00       1.01224E+05      -1.61997E+07       0.00000E+00       1.07260E+03       0.00000E+00       5.78518E+08       0.00000E+00       0.00000E+00       4.74815E+03       0.00000E+00       1.26269E+05       0.00000E+00       9.43611E+09
          4   0.40000E-01       4.36212E+06       0.00000E+00      -5.60154E+01       0.00000E+00      -1.61130E+07       0.00000E+00       0.00000E+00       4.36246E+06       0.00000E+00       1.61146E+07       0.00000E+00       9.61546E+03      -3.70874E+00       0.00000E+00       1.27828E+06       0.00000E+00       7.58521E+02       0.00000E+00       0.00000E+00       1.61887E+07       0.00000E+00       5.78326E+08       0.00000E+00       1.00559E+05      -1.61876E+07       0.00000E+00       1.07340E+03       0.00000E+00       5.78319E+08       0.00000E+00       0.00000E+00       4.71006E+03       0.00000E+00       1.25417E+05       0.00000E+00       9.42481E+09
          5   0.50000E-01       4.35531E+06       0.00000E+00      -5.54566E+01       0.00000E+00      -1.60983E+07       0.00000E+00       0.00000E+00       4.35565E+06       0.00000E+00       1.60999E+07       0.00000E+00       9.52361E+03      -3.56284E+00       0.00000E+00       1.27773E+06       0.00000E+00       7.61522E+02       0.00000E+00       0.00000E+00       1.61732E+07       0.00000E+00       5.78070E+08       0.00000E+00       9.97059E+04      -1.61722E+07       0.00000E+00       1.07442E+03       0.00000E+00       5.78063E+08       0.00000E+00       0.00000E+00       4.66123E+03       0.00000E+00       1.24324E+05       0.00000E+00       9.41030E+09
          6   0.60000E-01       4.34701E+06       0.00000E+00      -5.47758E+01       0.00000E+00      -1.60804E+07       0.00000E+00       0.00000E+00       4.34734E+06       0.00000E+00       1.60820E+07       0.00000E+00       9.41170E+03      -3.38509E+00       0.00000E+00       1.27706E+06       0.00000E+00       7.65177E+02       0.00000E+00       0.00000E+00       1.61544E+07       0.00000E+00       5.77758E+08       0.00000E+00       9.86663E+04      -1.61533E+07       0.00000E+00       1.07567E+03       0.00000E+00       5.77750E+08       0.00000E+00       0.00000E+00       4.60172E+03       0.00000E+00       1.22993E+05       0.00000E+00       9.39259E+09
          7   0.70000E-01       4.33721E+06       0.00000E+00      -5.39744E+01       0.00000E+00      -1.60592E+07       0.00000E+00       0.00000E+00       4.33754E+06       0.00000E+00       1.60608E+07       0.00000E+00       9.27996E+03      -3.17583E+00       0.00000E+00       1.27627E+06       0.00000E+00       7.69479E+02       0.00000E+00       0.00000E+00       1.61321E+07       0.00000E+00       5.77389E+08       0.00000E+00       9.74422E+04      -1.61311E+07       0.00000E+00       1.07713E+03       0.00000E+00       5.77381E+08       0.00000E+00       0.00000E+00       4.53168E+03       0.00000E+00       1.21425E+05       0.00000E+00       9.37169E+09
          8   0.80000E-01       4.32592E+06       0.00000E+00      -5.30538E+01       0.00000E+00      -1.60348E+07       0.00000E+00       0.00000E+00       4.32625E+06       0.00000E+00       1.60363E+07       0.00000E+00       9.12864E+03      -2.93546E+00       0.00000E+00       1.27536E+06       0.00000E+00       7.74421E+02       0.00000E+00       0.00000E+00       1.61064E+07       0.00000E+00       5.76963E+08       0.00000E+00       9.60361E+04      -1.61054E+07       0.00000E+00       1.07881E+03       0.00000E+00       5.76955E+08       0.00000E+00       0.00000E+00       4.45121E+03       0.00000E+00       1.19625E+05       0.00000E+00       9.34762E+09
          9   0.90000E-01       4.31315E+06       0.00000E+00      -5.20158E+01       0.00000E+00      -1.60072E+07       0.00000E+00       0.00000E+00       4.31348E+06       0.00000E+00       1.60087E+07       0.00000E+00       8.95803E+03      -2.66446E+00       0.00000E+00       1.27432E+06       0.00000E+00       7.79991E+02       0.00000E+00       0.00000E+00       1.60774E+07       0.00000E+00       5.76481E+08       0.00000E+00       9.44504E+04      -1.60764E+07       0.00000E+00       1.08070E+03       0.00000E+00       5.76472E+08       0.00000E+00       0.00000E+00       4.36050E+03       0.00000E+00       1.17594E+05       0.00000E+00       9.32040E+09
         10   0.10000E+00       4.29892E+06       0.00000E+00      -5.08624E+01       0.00000E+00      -1.59763E+07       0.00000E+00       0.00000E+00       4.29924E+06       0.00000E+00       1.59778E+07       0.00000E+00       8.76845E+03      -2.36333E+00       0.00000E+00       1.27317E+06       0.00000E+00       7.86179E+02       0.00000E+00       0.00000E+00       1.60450E+07       0.00000E+00       5.75943E+08       0.00000E+00       9.26883E+04      -1.60441E+07       0.00000E+00       1.08280E+03       0.00000E+00       5.75934E+08       0.00000E+00       0.00000E+00       4.25969E+03       0.00000E+00       1.15338E+05       0.00000E+00       9.29004E+09
         11   0.11000E+00       4.28323E+06       0.00000E+00      -4.95958E+01       0.00000E+00      -1.59423E+07       0.00000E+00       0.00000E+00       4.28355E+06       0.00000E+00       1.59438E+07       0.00000E+00       8.56029E+03      -2.03267E+00       0.00000E+00       1.27190E+06       0.00000E+00       7.92974E+02       0.00000E+00       0.00000E+00       1.60092E+07       0.00000E+00       5.75348E+08       0.00000E+00       9.07529E+04      -1.60083E+07       0.00000E+00       1.08510E+03       0.00000E+00       5.75339E+08       0.00000E+00       0.00000E+00       4.14900E+03       0.00000E+00       1.12860E+05       0.00000E+00       9.25658E+09
         12   0.12000E+00       4.26610E+06       0.00000E+00      -4.82185E+01       0.00000E+00      -1.59051E+07       0.00000E+00       0.00000E+00       4.26641E+06       0.00000E+00       1.59065E+07       0.00000E+00       8.33392E+03      -1.67310E+00       0.00000E+00       1.27050E+06       0.00000E+00       8.00360E+02       0.00000E+00       0.00000E+00       1.59702E+07       0.00000E+00       5.74698E+08       0.00000E+00       8.86479E+04      -1.59693E+07       0.00000E+00       1.08761E+03       0.00000E+00       5.74688E+08       0.00000E+00       0.00000E+00       4.02863E+03       0.00000E+00       1.10165E+05       0.00000E+00       9.22003E+09
         13   0.13000E+00       4.24753E+06       0.00000E+00      -4.67331E+01       0.00000E+00      -1.58648E+07       0.00000E+00       0.00000E+00       4.24784E+06       0.00000E+00       1.58662E+07       0.00000E+00       8.08979E+03      -1.28532E+00       0.00000E+00       1.26899E+06       0.00000E+00       8.08324E+02       0.00000E+00       0.00000E+00       1.59278E+07       0.00000E+00       5.73991E+08       0.00000E+00       8.63773E+04      -1.59270E+07       0.00000E+00       1.09030E+03       0.00000E+00       5.73981E+08       0.00000E+00       0.00000E+00       3.89882E+03       0.00000E+00       1.07258E+05       0.00000E+00       9.18043E+09
         14   0.14000E+00       4.22755E+06       0.00000E+00      -4.51424E+01       0.00000E+00      -1.58214E+07       0.00000E+00       0.00000E+00       4.22785E+06       0.00000E+00       1.58226E+07       0.00000E+00       7.82837E+03      -8.70083E-01       0.00000E+00       1.26736E+06       0.00000E+00       8.16849E+02       0.00000E+00       0.00000E+00       1.58822E+07       0.00000E+00       5.73229E+08       0.00000E+00       8.39453E+04      -1.58814E+07       0.00000E+00       1.09318E+03       0.00000E+00       5.73218E+08       0.00000E+00       0.00000E+00       3.75981E+03       0.00000E+00       1.04145E+05       0.00000E+00       9.13781E+09
         15   0.15000E+00       4.20617E+06       0.00000E+00      -4.34496E+01       0.00000E+00      -1.57748E+07       0.00000E+00       0.00000E+00       4.20646E+06       0.00000E+00       1.57760E+07       0.00000E+00       7.55017E+03      -4.28180E-01       0.00000E+00       1.26561E+06       0.00000E+00       8.25919E+02       0.00000E+00       0.00000E+00       1.58333E+07       0.00000E+00       5.72411E+08       0.00000E+00       8.13564E+04      -1.58325E+07       0.00000E+00       1.09625E+03       0.00000E+00       5.72400E+08       0.00000E+00       0.00000E+00       3.61188E+03       0.00000E+00       1.00831E+05       0.00000E+00       9.09219E+09
         16   0.16000E+00       4.18340E+06       0.00000E+00      -4.16578E+01       0.00000E+00      -1.57252E+07       0.00000E+00       0.00000E+00       4.18369E+06       0.00000E+00       1.57263E+07       0.00000E+00       7.25571E+03       3.95339E-02       0.00000E+00       1.26375E+06       0.00000E+00       8.35515E+02       0.00000E+00       0.00000E+00       1.57812E+07       0.00000E+00       5.71538E+08       0.00000E+00       7.86155E+04      -1.57805E+07       0.00000E+00       1.09948E+03       0.00000E+00       5.71526E+08       0.00000E+00       0.00000E+00       3.45530E+03       0.00000E+00       9.73229E+04       0.00000E+00       9.04361E+09
         17   0.17000E+00       4.15927E+06       0.00000E+00      -3.97705E+01       0.00000E+00      -1.56724E+07       0.00000E+00       0.00000E+00       4.15955E+06       0.00000E+00       1.56736E+07       0.00000E+00       6.94557E+03       5.32149E-01       0.00000E+00       1.26177E+06       0.00000E+00       8.45619E+02       0.00000E+00       0.00000E+00       1.57259E+07       0.00000E+00       5.70609E+08       0.00000E+00       7.57278E+04      -1.57252E+07       0.00000E+00       1.10288E+03       0.00000E+00       5.70597E+08       0.00000E+00       0.00000E+00       3.29038E+03       0.00000E+00       9.36270E+04       0.00000E+00       8.99211E+09
         18   0.18000E+00       4.13379E+06       0.00000E+00      -3.77913E+01       0.00000E+00      -1.56167E+07       0.00000E+00       0.00000E+00       4.13406E+06       0.00000E+00       1.56178E+07       0.00000E+00       6.62034E+03       1.04873E+00       0.00000E+00       1.25967E+06       0.00000E+00       8.56210E+02       0.00000E+00       0.00000E+00       1.56674E+07       0.00000E+00       5.69626E+08       0.00000E+00       7.26986E+04      -1.56668E+07       0.00000E+00       1.10644E+03       0.00000E+00       5.69613E+08       0.00000E+00       0.00000E+00       3.11743E+03       0.00000E+00       8.97504E+04       0.00000E+00       8.93774E+09
         19   0.19000E+00       4.10699E+06       0.00000E+00      -3.57240E+01       0.00000E+00      -1.55580E+07       0.00000E+00       0.00000E+00       4.10725E+06       0.00000E+00       1.55589E+07       0.00000E+00       6.28065E+03       1.58826E+00       0.00000E+00       1.25746E+06       0.00000E+00       8.67266E+02       0.00000E+00       0.00000E+00       1.56058E+07       0.00000E+00       5.68588E+08       0.00000E+00       6.95337E+04      -1.56053E+07       0.00000E+00       1.11015E+03       0.00000E+00       5.68574E+08       0.00000E+00       0.00000E+00       2.93680E+03       0.00000E+00       8.57004E+04       0.00000E+00       8.88052E+09
         20   0.20000E+00       4.07887E+06       0.00000E+00      -3.35726E+01       0.00000E+00      -1.54963E+07       0.00000E+00       0.00000E+00       4.07912E+06       0.00000E+00       1.54972E+07       0.00000E+00       5.92715E+03       2.14971E+00       0.00000E+00       1.25513E+06       0.00000E+00       8.78767E+02       0.00000E+00       0.00000E+00       1.55412E+07       0.00000E+00       5.67495E+08       0.00000E+00       6.62388E+04      -1.55407E+07       0.00000E+00       1.11400E+03       0.00000E+00       5.67481E+08       0.00000E+00       0.00000E+00       2.74881E+03       0.00000E+00       8.14846E+04       0.00000E+00       8.82050E+09
         21   0.21000E+00       4.04947E+06       0.00000E+00      -3.13412E+01       0.00000E+00      -1.54316E+07       0.00000E+00       0.00000E+00       4.04972E+06       0.00000E+00       1.54324E+07       0.00000E+00       5.56054E+03       2.73199E+00       0.00000E+00       1.25269E+06       0.00000E+00       8.90687E+02       0.00000E+00       0.00000E+00       1.54734E+07       0.00000E+00       5.66348E+08       0.00000E+00       6.28203E+04      -1.54730E+07       0.00000E+00       1.11799E+03       0.00000E+00       5.66334E+08       0.00000E+00       0.00000E+00       2.55385E+03       0.00000E+00       7.71111E+04       0.00000E+00       8.75773E+09
         22   0.22000E+00       4.01881E+06       0.00000E+00      -2.90341E+01       0.00000E+00      -1.53640E+07       0.00000E+00       0.00000E+00       4.01904E+06       0.00000E+00       1.53648E+07       0.00000E+00       5.18150E+03       3.33398E+00       0.00000E+00       1.25014E+06       0.00000E+00       9.03005E+02       0.00000E+00       0.00000E+00       1.54027E+07       0.00000E+00       5.65148E+08       0.00000E+00       5.92845E+04      -1.54023E+07       0.00000E+00       1.12210E+03       0.00000E+00       5.65132E+08       0.00000E+00       0.00000E+00       2.35228E+03       0.00000E+00       7.25879E+04       0.00000E+00       8.69226E+09
         23   0.23000E+00       3.98691E+06       0.00000E+00      -2.66558E+01       0.00000E+00      -1.52936E+07       0.00000E+00       0.00000E+00       3.98713E+06       0.00000E+00       1.52942E+07       0.00000E+00       4.79077E+03       3.95450E+00       0.00000E+00       1.24748E+06       0.00000E+00       9.15693E+02       0.00000E+00       0.00000E+00       1.53290E+07       0.00000E+00       5.63893E+08       0.00000E+00       5.56380E+04      -1.53287E+07       0.00000E+00       1.12632E+03       0.00000E+00       5.63877E+08       0.00000E+00       0.00000E+00       2.14450E+03       0.00000E+00       6.79238E+04       0.00000E+00       8.62413E+09
         24   0.24000E+00       3.95379E+06       0.00000E+00      -2.42107E+01       0.00000E+00      -1.52203E+07       0.00000E+00       0.00000E+00       3.95401E+06       0.00000E+00       1.52209E+07       0.00000E+00       4.38911E+03       4.59236E+00       0.00000E+00       1.24470E+06       0.00000E+00       9.28728E+02       0.00000E+00       0.00000E+00       1.52523E+07       0.00000E+00       5.62585E+08       0.00000E+00       5.18876E+04      -1.52520E+07       0.00000E+00       1.13064E+03       0.00000E+00       5.62569E+08       0.00000E+00       0.00000E+00       1.93089E+03       0.00000E+00       6.31274E+04       0.00000E+00       8.55339E+09
         25   0.25000E+00       3.91949E+06       0.00000E+00      -2.17037E+01       0.00000E+00      -1.51442E+07       0.00000E+00       0.00000E+00       3.91969E+06       0.00000E+00       1.51447E+07       0.00000E+00       3.97729E+03       5.24633E+00       0.00000E+00       1.24182E+06       0.00000E+00       9.42082E+02       0.00000E+00       0.00000E+00       1.51728E+07       0.00000E+00       5.61224E+08       0.00000E+00       4.80405E+04      -1.51726E+07       0.00000E+00       1.13506E+03       0.00000E+00       5.61207E+08       0.00000E+00       0.00000E+00       1.71188E+03       0.00000E+00       5.82078E+04       0.00000E+00       8.48010E+09
         26   0.26000E+00       3.88401E+06       0.00000E+00      -1.91394E+01       0.00000E+00      -1.50653E+07       0.00000E+00       0.00000E+00       3.88421E+06       0.00000E+00       1.50657E+07       0.00000E+00       3.55609E+03       5.91514E+00       0.00000E+00       1.23883E+06       0.00000E+00       9.55728E+02       0.00000E+00       0.00000E+00       1.50904E+07       0.00000E+00       5.59811E+08       0.00000E+00       4.41036E+04      -1.50902E+07       0.00000E+00       1.13956E+03       0.00000E+00       5.59792E+08       0.00000E+00       0.00000E+00       1.48789E+03       0.00000E+00       5.31742E+04       0.00000E+00       8.40430E+09
         27   0.27000E+00       3.84741E+06       0.00000E+00      -1.65230E+01       0.00000E+00      -1.49837E+07       0.00000E+00       0.00000E+00       3.84759E+06       0.00000E+00       1.49840E+07       0.00000E+00       3.12635E+03       6.59748E+00       0.00000E+00       1.23573E+06       0.00000E+00       9.69639E+02       0.00000E+00       0.00000E+00       1.50052E+07       0.00000E+00       5.58344E+08       0.00000E+00       4.00846E+04      -1.50051E+07       0.00000E+00       1.14414E+03       0.00000E+00       5.58325E+08       0.00000E+00       0.00000E+00       1.25934E+03       0.00000E+00       4.80364E+04       0.00000E+00       8.32607E+09
         28   0.28000E+00       3.80969E+06       0.00000E+00      -1.38593E+01       0.00000E+00      -1.48994E+07       0.00000E+00       0.00000E+00       3.80986E+06       0.00000E+00       1.48997E+07       0.00000E+00       2.68887E+03       7.29203E+00       0.00000E+00       1.23252E+06       0.00000E+00       9.83786E+02       0.00000E+00       0.00000E+00       1.49172E+07       0.00000E+00       5.56826E+08       0.00000E+00       3.59908E+04      -1.49172E+07       0.00000E+00       1.14877E+03       0.00000E+00       5.56806E+08       0.00000E+00       0.00000E+00       1.02668E+03       0.00000E+00       4.28037E+04       0.00000E+00       8.24544E+09
         29   0.29000E+00       3.77089E+06       0.00000E+00      -1.11535E+01       0.00000E+00      -1.48125E+07       0.00000E+00       0.00000E+00       3.77105E+06       0.00000E+00       1.48126E+07       0.00000E+00       2.24451E+03       7.99745E+00       0.00000E+00       1.22921E+06       0.00000E+00       9.98140E+02       0.00000E+00       0.00000E+00       1.48265E+07       0.00000E+00       5.55256E+08       0.00000E+00       3.18300E+04      -1.48266E+07       0.00000E+00       1.15346E+03       0.00000E+00       5.55235E+08       0.00000E+00       0.00000E+00       7.90363E+02       0.00000E+00       3.74862E+04       0.00000E+00       8.16249E+09
         30   0.30000E+00       3.73103E+06       0.00000E+00      -8.41073E+00       0.00000E+00      -1.47229E+07       0.00000E+00       0.00000E+00       3.73118E+06       0.00000E+00       1.47230E+07       0.00000E+00       1.79412E+03       8.71236E+00       0.00000E+00       1.22580E+06       0.00000E+00       1.01267E+03       0.00000E+00       0.00000E+00       1.47332E+07       0.00000E+00       5.53634E+08       0.00000E+00       2.76098E+04      -1.47333E+07       0.00000E+00       1.15818E+03       0.00000E+00       5.53612E+08       0.00000E+00       0.00000E+00       5.50831E+02       0.00000E+00       3.20939E+04       0.00000E+00       8.07727E+09
         31   0.31000E+00       3.69015E+06       0.00000E+00      -5.63643E+00       0.00000E+00      -1.46308E+07       0.00000E+00       0.00000E+00       3.69029E+06       0.00000E+00       1.46308E+07       0.00000E+00       1.33858E+03       9.43537E+00       0.00000E+00       1.22228E+06       0.00000E+00       1.02735E+03       0.00000E+00       0.00000E+00       1.46372E+07       0.00000E+00       5.51961E+08       0.00000E+00       2.33382E+04      -1.46374E+07       0.00000E+00       1.16293E+03       0.00000E+00       5.51938E+08       0.00000E+00       0.00000E+00       3.08561E+02       0.00000E+00       2.66370E+04       0.00000E+00       7.98984E+09
         32   0.32000E+00       3.64828E+06       0.00000E+00      -2.83577E+00       0.00000E+00      -1.45361E+07       0.00000E+00       0.00000E+00       3.64840E+06       0.00000E+00       1.45360E+07       0.00000E+00       8.78757E+02       1.01651E+01       0.00000E+00       1.21865E+06       0.00000E+00       1.04215E+03       0.00000E+00       0.00000E+00       1.45387E+07       0.00000E+00       5.50237E+08       0.00000E+00       1.90232E+04      -1.45390E+07       0.00000E+00       1.16769E+03       0.00000E+00       5.50214E+08       0.00000E+00       0.00000E+00       6.40077E+01       0.00000E+00       2.11256E+04       0.00000E+00       7.90027E+09
         33   0.33000E+00       3.60544E+06       0.00000E+00      -1.42852E-02       0.00000E+00      -1.44390E+07       0.00000E+00       0.00000E+00       3.60556E+06       0.00000E+00       1.44388E+07       0.00000E+00       4.15540E+02       1.09000E+01       0.00000E+00       1.21493E+06       0.00000E+00       1.05703E+03       0.00000E+00       0.00000E+00       1.44377E+07       0.00000E+00       5.48463E+08       0.00000E+00       1.46730E+04      -1.44380E+07       0.00000E+00       1.17246E+03       0.00000E+00       5.48439E+08       0.00000E+00       0.00000E+00      -1.82346E+02       0.00000E+00       1.55704E+04       0.00000E+00       7.80861E+09
         34   0.34000E+00       3.56167E+06       0.00000E+00       2.82274E+00       0.00000E+00      -1.43395E+07       0.00000E+00       0.00000E+00       3.56177E+06       0.00000E+00       1.43392E+07       0.00000E+00      -5.01749E+01       1.16389E+01       0.00000E+00       1.21111E+06       0.00000E+00       1.07197E+03       0.00000E+00       0.00000E+00       1.43342E+07       0.00000E+00       5.46638E+08       0.00000E+00       1.02955E+04      -1.43346E+07       0.00000E+00       1.17722E+03       0.00000E+00       5.46614E+08       0.00000E+00       0.00000E+00      -4.30034E+02       0.00000E+00       9.98164E+03       0.00000E+00       7.71494E+09
         35   0.35000E+00       3.51700E+06       0.00000E+00       5.66969E+00       0.00000E+00      -1.42375E+07       0.00000E+00       0.00000E+00       3.51709E+06       0.00000E+00       1.42371E+07       0.00000E+00      -5.17490E+02       1.23801E+01       0.00000E+00       1.20719E+06       0.00000E+00       1.08693E+03       0.00000E+00       0.00000E+00       1.42283E+07       0.00000E+00       5.44764E+08       0.00000E+00       5.89900E+03      -1.42288E+07       0.00000E+00       1.18195E+03       0.00000E+00       5.44739E+08       0.00000E+00       0.00000E+00      -6.78566E+02       0.00000E+00       4.37002E+03       0.00000E+00       7.61932E+09
         36   0.36000E+00       3.47146E+06       0.00000E+00       8.52125E+00       0.00000E+00      -1.41332E+07       0.00000E+00       0.00000E+00       3.47154E+06       0.00000E+00       1.41327E+07       0.00000E+00      -9.85503E+02       1.31222E+01       0.00000E+00       1.20317E+06       0.00000E+00       1.10188E+03       0.00000E+00       0.00000E+00       1.41201E+07       0.00000E+00       5.42841E+08       0.00000E+00       1.49171E+03      -1.41207E+07       0.00000E+00       1.18665E+03       0.00000E+00       5.42815E+08       0.00000E+00       0.00000E+00      -9.27476E+02       0.00000E+00      -1.25406E+03       0.00000E+00       7.52180E+09
         37   0.37000E+00       3.42508E+06       0.00000E+00       1.13717E+01       0.00000E+00      -1.40267E+07       0.00000E+00       0.00000E+00       3.42515E+06       0.00000E+00       1.40261E+07       0.00000E+00      -1.45331E+03       1.38638E+01       0.00000E+00       1.19905E+06       0.00000E+00       1.11680E+03       0.00000E+00       0.00000E+00       1.40096E+07       0.00000E+00       5.40869E+08       0.00000E+00      -2.91806E+03      -1.40102E+07       0.00000E+00       1.19130E+03       0.00000E+00       5.40842E+08       0.00000E+00       0.00000E+00      -1.17627E+03       0.00000E+00      -6.87974E+03       0.00000E+00       7.42248E+09
         38   0.38000E+00       3.37790E+06       0.00000E+00       1.42159E+01       0.00000E+00      -1.39179E+07       0.00000E+00       0.00000E+00       3.37796E+06       0.00000E+00       1.39172E+07       0.00000E+00      -1.92000E+03       1.46035E+01       0.00000E+00       1.19484E+06       0.00000E+00       1.13164E+03       0.00000E+00       0.00000E+00       1.38968E+07       0.00000E+00       5.38849E+08       0.00000E+00      -7.32217E+03      -1.38975E+07       0.00000E+00       1.19590E+03       0.00000E+00       5.38820E+08       0.00000E+00       0.00000E+00      -1.42447E+03       0.00000E+00      -1.24967E+04       0.00000E+00       7.32140E+09
         39   0.39000E+00       3.32995E+06       0.00000E+00       1.70479E+01       0.00000E+00      -1.38069E+07       0.00000E+00       0.00000E+00       3.33000E+06       0.00000E+00       1.38061E+07       0.00000E+00      -2.38469E+03       1.53397E+01       0.00000E+00       1.19054E+06       0.00000E+00       1.14638E+03       0.00000E+00       0.00000E+00       1.37819E+07       0.00000E+00       5.36780E+08       0.00000E+00      -1.17123E+04      -1.37827E+07       0.00000E+00       1.20041E+03       0.00000E+00       5.36751E+08       0.00000E+00       0.00000E+00      -1.67160E+03       0.00000E+00      -1.80940E+04       0.00000E+00       7.21866E+09
         40   0.40000E+00       3.28126E+06       0.00000E+00       1.98627E+01       0.00000E+00      -1.36937E+07       0.00000E+00       0.00000E+00       3.28129E+06       0.00000E+00       1.36928E+07       0.00000E+00      -2.84647E+03       1.60710E+01       0.00000E+00       1.18614E+06       0.00000E+00       1.16099E+03       0.00000E+00       0.00000E+00       1.36648E+07       0.00000E+00       5.34664E+08       0.00000E+00      -1.60803E+04      -1.36657E+07       0.00000E+00       1.20485E+03       0.00000E+00       5.34634E+08       0.00000E+00       0.00000E+00      -1.91718E+03       0.00000E+00      -2.36614E+04       0.00000E+00       7.11429E+09
         41   0.41000E+00       3.23187E+06       0.00000E+00       2.26545E+01       0.00000E+00      -1.35785E+07       0.00000E+00       0.00000E+00       3.23189E+06       0.00000E+00       1.35775E+07       0.00000E+00      -3.30444E+03       1.67961E+01       0.00000E+00       1.18165E+06       0.00000E+00       1.17543E+03       0.00000E+00       0.00000E+00       1.35457E+07       0.00000E+00       5.32500E+08       0.00000E+00      -2.04179E+04      -1.35466E+07       0.00000E+00       1.20918E+03       0.00000E+00       5.32469E+08       0.00000E+00       0.00000E+00      -2.16073E+03       0.00000E+00      -2.91882E+04       0.00000E+00       7.00839E+09
         42   0.42000E+00       3.18180E+06       0.00000E+00       2.54182E+01       0.00000E+00      -1.34612E+07       0.00000E+00       0.00000E+00       3.18181E+06       0.00000E+00       1.34601E+07       0.00000E+00      -3.75773E+03       1.75133E+01       0.00000E+00       1.17707E+06       0.00000E+00       1.18967E+03       0.00000E+00       0.00000E+00       1.34246E+07       0.00000E+00       5.30290E+08       0.00000E+00      -2.47172E+04      -1.34256E+07       0.00000E+00       1.21341E+03       0.00000E+00       5.30258E+08       0.00000E+00       0.00000E+00      -2.40178E+03       0.00000E+00      -3.46640E+04       0.00000E+00       6.90101E+09
         43   0.43000E+00       3.13110E+06       0.00000E+00       2.81483E+01       0.00000E+00      -1.33419E+07       0.00000E+00       0.00000E+00       3.13110E+06       0.00000E+00       1.33408E+07       0.00000E+00      -4.20545E+03       1.82214E+01       0.00000E+00       1.17240E+06       0.00000E+00       1.20369E+03       0.00000E+00       0.00000E+00       1.33015E+07       0.00000E+00       5.28033E+08       0.00000E+00      -2.89699E+04      -1.33026E+07       0.00000E+00       1.21751E+03       0.00000E+00       5.28001E+08       0.00000E+00       0.00000E+00      -2.63986E+03       0.00000E+00      -4.00785E+04       0.00000E+00       6.79224E+09
         44   0.44000E+00       3.07979E+06       0.00000E+00       3.08396E+01       0.00000E+00      -1.32207E+07       0.00000E+00       0.00000E+00       3.07978E+06       0.00000E+00       1.32195E+07       0.00000E+00      -4.64674E+03       1.89190E+01       0.00000E+00       1.16764E+06       0.00000E+00       1.21744E+03       0.00000E+00       0.00000E+00       1.31766E+07       0.00000E+00       5.25730E+08       0.00000E+00      -3.31683E+04      -1.31777E+07       0.00000E+00       1.22147E+03       0.00000E+00       5.25697E+08       0.00000E+00       0.00000E+00      -2.87452E+03       0.00000E+00      -4.54216E+04       0.00000E+00       6.68214E+09
         45   0.45000E+00       3.02792E+06       0.00000E+00       3.34867E+01       0.00000E+00      -1.30977E+07       0.00000E+00       0.00000E+00       3.02789E+06       0.00000E+00       1.30963E+07       0.00000E+00      -5.08075E+03       1.96045E+01       0.00000E+00       1.16280E+06       0.00000E+00       1.23090E+03       0.00000E+00       0.00000E+00       1.30498E+07       0.00000E+00       5.23382E+08       0.00000E+00      -3.73044E+04      -1.30510E+07       0.00000E+00       1.22529E+03       0.00000E+00       5.23348E+08       0.00000E+00       0.00000E+00      -3.10528E+03       0.00000E+00      -5.06830E+04       0.00000E+00       6.57079E+09
         46   0.46000E+00       2.97551E+06       0.00000E+00       3.60848E+01       0.00000E+00      -1.29727E+07       0.00000E+00       0.00000E+00       2.97547E+06       0.00000E+00       1.29713E+07       0.00000E+00      -5.50663E+03       2.02768E+01       0.00000E+00       1.15787E+06       0.00000E+00       1.24404E+03       0.00000E+00       0.00000E+00       1.29213E+07       0.00000E+00       5.20989E+08       0.00000E+00      -4.13706E+04      -1.29225E+07       0.00000E+00       1.22894E+03       0.00000E+00       5.20954E+08       0.00000E+00       0.00000E+00      -3.33172E+03       0.00000E+00      -5.58529E+04       0.00000E+00       6.45825E+09
         47   0.47000E+00       2.92260E+06       0.00000E+00       3.86286E+01       0.00000E+00      -1.28461E+07       0.00000E+00       0.00000E+00       2.92255E+06       0.00000E+00       1.28446E+07       0.00000E+00      -5.92356E+03       2.09343E+01       0.00000E+00       1.15285E+06       0.00000E+00       1.25684E+03       0.00000E+00       0.00000E+00       1.27910E+07       0.00000E+00       5.18551E+08       0.00000E+00      -4.53591E+04      -1.27923E+07       0.00000E+00       1.23242E+03       0.00000E+00       5.18516E+08       0.00000E+00       0.00000E+00      -3.55338E+03       0.00000E+00      -6.09215E+04       0.00000E+00       6.34460E+09
         48   0.48000E+00       2.86922E+06       0.00000E+00       4.11134E+01       0.00000E+00      -1.27177E+07       0.00000E+00       0.00000E+00       2.86916E+06       0.00000E+00       1.27161E+07       0.00000E+00      -6.33073E+03       2.15759E+01       0.00000E+00       1.14775E+06       0.00000E+00       1.26925E+03       0.00000E+00       0.00000E+00       1.26591E+07       0.00000E+00       5.16069E+08       0.00000E+00      -4.92626E+04      -1.26605E+07       0.00000E+00       1.23571E+03       0.00000E+00       5.16033E+08       0.00000E+00       0.00000E+00      -3.76983E+03       0.00000E+00      -6.58793E+04       0.00000E+00       6.22991E+09
         49   0.49000E+00       2.81542E+06       0.00000E+00       4.35341E+01       0.00000E+00      -1.25876E+07       0.00000E+00       0.00000E+00       2.81535E+06       0.00000E+00       1.25859E+07       0.00000E+00      -6.72735E+03       2.22001E+01       0.00000E+00       1.14257E+06       0.00000E+00       1.28125E+03       0.00000E+00       0.00000E+00       1.25257E+07       0.00000E+00       5.13543E+08       0.00000E+00      -5.30738E+04      -1.25271E+07       0.00000E+00       1.23880E+03       0.00000E+00       5.13506E+08       0.00000E+00       0.00000E+00      -3.98066E+03       0.00000E+00      -7.07168E+04       0.00000E+00       6.11425E+09
         50   0.50000E+00       2.76121E+06       0.00000E+00       4.58863E+01       0.00000E+00      -1.24559E+07       0.00000E+00       0.00000E+00       2.76113E+06       0.00000E+00       1.24542E+07       0.00000E+00      -7.11265E+03       2.28058E+01       0.00000E+00       1.13731E+06       0.00000E+00       1.29281E+03       0.00000E+00       0.00000E+00       1.23907E+07       0.00000E+00       5.10974E+08       0.00000E+00      -5.67856E+04      -1.23922E+07       0.00000E+00       1.24168E+03       0.00000E+00       5.10936E+08       0.00000E+00       0.00000E+00      -4.18544E+03       0.00000E+00      -7.54250E+04       0.00000E+00       5.99769E+09
         51   0.51000E+00       2.70664E+06       0.00000E+00       4.81652E+01       0.00000E+00      -1.23227E+07       0.00000E+00       0.00000E+00       2.70655E+06       0.00000E+00       1.23208E+07       0.00000E+00      -7.48589E+03       2.33918E+01       0.00000E+00       1.13197E+06       0.00000E+00       1.30391E+03       0.00000E+00       0.00000E+00       1.22542E+07       0.00000E+00       5.08363E+08       0.00000E+00      -6.03910E+04      -1.22558E+07       0.00000E+00       1.24434E+03       0.00000E+00       5.08324E+08       0.00000E+00       0.00000E+00      -4.38379E+03       0.00000E+00      -7.99950E+04       0.00000E+00       5.88031E+09
         52   0.52000E+00       2.65174E+06       0.00000E+00       5.03666E+01       0.00000E+00      -1.21879E+07       0.00000E+00       0.00000E+00       2.65164E+06       0.00000E+00       1.21860E+07       0.00000E+00      -7.84633E+03       2.39567E+01       0.00000E+00       1.12655E+06       0.00000E+00       1.31451E+03       0.00000E+00       0.00000E+00       1.21163E+07       0.00000E+00       5.05708E+08       0.00000E+00      -6.38834E+04      -1.21179E+07       0.00000E+00       1.24677E+03       0.00000E+00       5.05669E+08       0.00000E+00       0.00000E+00      -4.57530E+03       0.00000E+00      -8.44182E+04       0.00000E+00       5.76217E+09
         53   0.53000E+00       2.59654E+06       0.00000E+00       5.24859E+01       0.00000E+00      -1.20517E+07       0.00000E+00       0.00000E+00       2.59644E+06       0.00000E+00       1.20497E+07       0.00000E+00      -8.19329E+03       2.44996E+01       0.00000E+00       1.12105E+06       0.00000E+00       1.32460E+03       0.00000E+00       0.00000E+00       1.19771E+07       0.00000E+00       5.03012E+08       0.00000E+00      -6.72561E+04      -1.19788E+07       0.00000E+00       1.24895E+03       0.00000E+00       5.02973E+08       0.00000E+00       0.00000E+00      -4.75961E+03       0.00000E+00      -8.86861E+04       0.00000E+00       5.64335E+09
         54   0.54000E+00       2.54108E+06       0.00000E+00       5.45194E+01       0.00000E+00      -1.19141E+07       0.00000E+00       0.00000E+00       2.54096E+06       0.00000E+00       1.19121E+07       0.00000E+00      -8.52606E+03       2.50191E+01       0.00000E+00       1.11548E+06       0.00000E+00       1.33413E+03       0.00000E+00       0.00000E+00       1.18366E+07       0.00000E+00       5.00275E+08       0.00000E+00      -7.05030E+04      -1.18383E+07       0.00000E+00       1.25087E+03       0.00000E+00       5.00234E+08       0.00000E+00       0.00000E+00      -4.93636E+03       0.00000E+00      -9.27908E+04       0.00000E+00       5.52391E+09
         55   0.55000E+00       2.48539E+06       0.00000E+00       5.64627E+01       0.00000E+00      -1.17752E+07       0.00000E+00       0.00000E+00       2.48526E+06       0.00000E+00       1.17731E+07       0.00000E+00      -8.84403E+03       2.55144E+01       0.00000E+00       1.10983E+06       0.00000E+00       1.34310E+03       0.00000E+00       0.00000E+00       1.16949E+07       0.00000E+00       4.97497E+08       0.00000E+00      -7.36179E+04      -1.16967E+07       0.00000E+00       1.25253E+03       0.00000E+00       4.97456E+08       0.00000E+00       0.00000E+00      -5.10520E+03       0.00000E+00      -9.67245E+04       0.00000E+00       5.40393E+09
         56   0.56000E+00       2.42950E+06       0.00000E+00       5.83123E+01       0.00000E+00      -1.16349E+07       0.00000E+00       0.00000E+00       2.42936E+06       0.00000E+00       1.16328E+07       0.00000E+00      -9.14655E+03       2.59842E+01       0.00000E+00       1.10411E+06       0.00000E+00       1.35148E+03       0.00000E+00       0.00000E+00       1.15521E+07       0.00000E+00       4.94678E+08       0.00000E+00      -7.65951E+04      -1.15539E+07       0.00000E+00       1.25391E+03       0.00000E+00       4.94636E+08       0.00000E+00       0.00000E+00      -5.26579E+03       0.00000E+00      -1.00480E+05       0.00000E+00       5.28347E+09
         57   0.57000E+00       2.37344E+06       0.00000E+00       6.00644E+01       0.00000E+00      -1.14935E+07       0.00000E+00       0.00000E+00       2.37330E+06       0.00000E+00       1.14913E+07       0.00000E+00      -9.43304E+03       2.64277E+01       0.00000E+00       1.09831E+06       0.00000E+00       1.35924E+03       0.00000E+00       0.00000E+00       1.14081E+07       0.00000E+00       4.91819E+08       0.00000E+00      -7.94290E+04      -1.14100E+07       0.00000E+00       1.25500E+03       0.00000E+00       4.91777E+08       0.00000E+00       0.00000E+00      -5.41781E+03       0.00000E+00      -1.04050E+05       0.00000E+00       5.16261E+09
         58   0.58000E+00       2.31725E+06       0.00000E+00       6.17157E+01       0.00000E+00      -1.13508E+07       0.00000E+00       0.00000E+00       2.31710E+06       0.00000E+00       1.13486E+07       0.00000E+00      -9.70294E+03       2.68440E+01       0.00000E+00       1.09244E+06       0.00000E+00       1.36635E+03       0.00000E+00       0.00000E+00       1.12631E+07       0.00000E+00       4.88920E+08       0.00000E+00      -8.21144E+04      -1.12650E+07       0.00000E+00       1.25579E+03       0.00000E+00       4.88878E+08       0.00000E+00       0.00000E+00      -5.56097E+03       0.00000E+00      -1.07427E+05       0.00000E+00       5.04139E+09
         59   0.59000E+00       2.26096E+06       0.00000E+00       6.32628E+01       0.00000E+00      -1.12071E+07       0.00000E+00       0.00000E+00       2.26080E+06       0.00000E+00       1.12047E+07       0.00000E+00      -9.95573E+03       2.72320E+01       0.00000E+00       1.08650E+06       0.00000E+00       1.37281E+03       0.00000E+00       0.00000E+00       1.11171E+07       0.00000E+00       4.85983E+08       0.00000E+00      -8.46462E+04      -1.11190E+07       0.00000E+00       1.25628E+03       0.00000E+00       4.85940E+08       0.00000E+00       0.00000E+00      -5.69498E+03       0.00000E+00      -1.10606E+05       0.00000E+00       4.91991E+09
         60   0.60000E+00       2.20460E+06       0.00000E+00       6.47029E+01       0.00000E+00      -1.10622E+07       0.00000E+00       0.00000E+00       2.20443E+06       0.00000E+00       1.10599E+07       0.00000E+00      -1.01909E+04       2.75910E+01       0.00000E+00       1.08049E+06       0.00000E+00       1.37859E+03       0.00000E+00       0.00000E+00       1.09701E+07       0.00000E+00       4.83007E+08       0.00000E+00      -8.70198E+04      -1.09721E+07       0.00000E+00       1.25644E+03       0.00000E+00       4.82963E+08       0.00000E+00       0.00000E+00      -5.81958E+03       0.00000E+00      -1.13580E+05       0.00000E+00       4.79822E+09
         61   0.61000E+00       2.14819E+06       0.00000E+00       6.60329E+01       0.00000E+00      -1.09164E+07       0.00000E+00       0.00000E+00       2.14802E+06       0.00000E+00       1.09140E+07       0.00000E+00      -1.04080E+04       2.79202E+01       0.00000E+00       1.07441E+06       0.00000E+00       1.38367E+03       0.00000E+00       0.00000E+00       1.08224E+07       0.00000E+00       4.79993E+08       0.00000E+00      -8.92307E+04      -1.08244E+07       0.00000E+00       1.25628E+03       0.00000E+00       4.79949E+08       0.00000E+00       0.00000E+00      -5.93450E+03       0.00000E+00      -1.16344E+05       0.00000E+00       4.67639E+09
         62   0.62000E+00       2.09178E+06       0.00000E+00       6.72503E+01       0.00000E+00      -1.07696E+07       0.00000E+00       0.00000E+00       2.09160E+06       0.00000E+00       1.07671E+07       0.00000E+00      -1.06066E+04       2.82188E+01       0.00000E+00       1.06826E+06       0.00000E+00       1.38803E+03       0.00000E+00       0.00000E+00       1.06737E+07       0.00000E+00       4.76941E+08       0.00000E+00      -9.12748E+04      -1.06758E+07       0.00000E+00       1.25579E+03       0.00000E+00       4.76896E+08       0.00000E+00       0.00000E+00      -6.03954E+03       0.00000E+00      -1.18893E+05       0.00000E+00       4.55446E+09
         63   0.63000E+00       2.03538E+06       0.00000E+00       6.83525E+01       0.00000E+00      -1.06219E+07       0.00000E+00       0.00000E+00       2.03520E+06       0.00000E+00       1.06194E+07       0.00000E+00      -1.07862E+04       2.84862E+01       0.00000E+00       1.06204E+06       0.00000E+00       1.39165E+03       0.00000E+00       0.00000E+00       1.05244E+07       0.00000E+00       4.73852E+08       0.00000E+00      -9.31483E+04      -1.05264E+07       0.00000E+00       1.25495E+03       0.00000E+00       4.73807E+08       0.00000E+00       0.00000E+00      -6.13446E+03       0.00000E+00      -1.21221E+05       0.00000E+00       4.43254E+09
         64   0.64000E+00       1.97903E+06       0.00000E+00       6.93376E+01       0.00000E+00      -1.04733E+07       0.00000E+00       0.00000E+00       1.97884E+06       0.00000E+00       1.04707E+07       0.00000E+00      -1.09466E+04       2.87217E+01       0.00000E+00       1.05576E+06       0.00000E+00       1.39453E+03       0.00000E+00       0.00000E+00       1.03743E+07       0.00000E+00       4.70726E+08       0.00000E+00      -9.48478E+04      -1.03764E+07       0.00000E+00       1.25377E+03       0.00000E+00       4.70681E+08       0.00000E+00       0.00000E+00      -6.21909E+03       0.00000E+00      -1.23325E+05       0.00000E+00       4.31064E+09
         65   0.65000E+00       1.92276E+06       0.00000E+00       7.02033E+01       0.00000E+00      -1.03239E+07       0.00000E+00       0.00000E+00       1.92257E+06       0.00000E+00       1.03213E+07       0.00000E+00      -1.10875E+04       2.89248E+01       0.00000E+00       1.04941E+06       0.00000E+00       1.39664E+03       0.00000E+00       0.00000E+00       1.02236E+07       0.00000E+00       4.67564E+08       0.00000E+00      -9.63702E+04      -1.02257E+07       0.00000E+00       1.25222E+03       0.00000E+00       4.67518E+08       0.00000E+00       0.00000E+00      -6.29323E+03       0.00000E+00      -1.25199E+05       0.00000E+00       4.18886E+09
         66   0.66000E+00       1.86659E+06       0.00000E+00       7.09481E+01       0.00000E+00      -1.01737E+07       0.00000E+00       0.00000E+00       1.86639E+06       0.00000E+00       1.01711E+07       0.00000E+00      -1.12085E+04       2.90949E+01       0.00000E+00       1.04299E+06       0.00000E+00       1.39797E+03       0.00000E+00       0.00000E+00       1.00723E+07       0.00000E+00       4.64366E+08       0.00000E+00      -9.77125E+04      -1.00744E+07       0.00000E+00       1.25031E+03       0.00000E+00       4.64320E+08       0.00000E+00       0.00000E+00      -6.35675E+03       0.00000E+00      -1.26842E+05       0.00000E+00       4.06724E+09
         67   0.67000E+00       1.81056E+06       0.00000E+00       7.15702E+01       0.00000E+00      -1.00229E+07       0.00000E+00       0.00000E+00       1.81035E+06       0.00000E+00       1.00203E+07       0.00000E+00      -1.13093E+04       2.92317E+01       0.00000E+00       1.03652E+06       0.00000E+00       1.39851E+03       0.00000E+00       0.00000E+00       9.92045E+06       0.00000E+00       4.61132E+08       0.00000E+00      -9.88724E+04      -9.92259E+06       0.00000E+00       1.24803E+03       0.00000E+00       4.61087E+08       0.00000E+00       0.00000E+00      -6.40950E+03       0.00000E+00      -1.28250E+05       0.00000E+00       3.94584E+09
         68   0.68000E+00       1.75468E+06       0.00000E+00       7.20686E+01       0.00000E+00      -9.87138E+06       0.00000E+00       0.00000E+00       1.75447E+06       0.00000E+00       9.86874E+06       0.00000E+00      -1.13899E+04       2.93346E+01       0.00000E+00       1.02998E+06       0.00000E+00       1.39824E+03       0.00000E+00       0.00000E+00       9.76811E+06       0.00000E+00       4.57864E+08       0.00000E+00      -9.98477E+04      -9.77026E+06       0.00000E+00       1.24537E+03       0.00000E+00       4.57818E+08       0.00000E+00       0.00000E+00      -6.45137E+03       0.00000E+00      -1.29419E+05       0.00000E+00       3.82472E+09
         69   0.69000E+00       1.69898E+06       0.00000E+00       7.24420E+01       0.00000E+00      -9.71929E+06       0.00000E+00       0.00000E+00       1.69877E+06       0.00000E+00       9.71664E+06       0.00000E+00      -1.14500E+04       2.94035E+01       0.00000E+00       1.02337E+06       0.00000E+00       1.39717E+03       0.00000E+00       0.00000E+00       9.61535E+06       0.00000E+00       4.54561E+08       0.00000E+00      -1.00637E+05      -9.61752E+06       0.00000E+00       1.24233E+03       0.00000E+00       4.54515E+08       0.00000E+00       0.00000E+00      -6.48227E+03       0.00000E+00      -1.30348E+05       0.00000E+00       3.70393E+09
         70   0.70000E+00       1.64350E+06       0.00000E+00       7.26897E+01       0.00000E+00      -9.56662E+06       0.00000E+00       0.00000E+00       1.64328E+06       0.00000E+00       9.56396E+06       0.00000E+00      -1.14894E+04       2.94379E+01       0.00000E+00       1.01671E+06       0.00000E+00       1.39528E+03       0.00000E+00       0.00000E+00       9.46220E+06       0.00000E+00       4.51224E+08       0.00000E+00      -1.01238E+05      -9.46436E+06       0.00000E+00       1.23890E+03       0.00000E+00       4.51178E+08       0.00000E+00       0.00000E+00      -6.50213E+03       0.00000E+00      -1.31035E+05       0.00000E+00       3.58353E+09
         71   0.71000E+00       1.58825E+06       0.00000E+00       7.28110E+01       0.00000E+00      -9.41346E+06       0.00000E+00       0.00000E+00       1.58803E+06       0.00000E+00       9.41080E+06       0.00000E+00      -1.15081E+04       2.94378E+01       0.00000E+00       1.00998E+06       0.00000E+00       1.39256E+03       0.00000E+00       0.00000E+00       9.30872E+06       0.00000E+00       4.47854E+08       0.00000E+00      -1.01650E+05      -9.31090E+06       0.00000E+00       1.23508E+03       0.00000E+00       4.47808E+08       0.00000E+00       0.00000E+00      -6.51089E+03       0.00000E+00      -1.31479E+05       0.00000E+00       3.46358E+09
         72   0.72000E+00       1.53325E+06       0.00000E+00       7.28056E+01       0.00000E+00      -9.25983E+06       0.00000E+00       0.00000E+00       1.53303E+06       0.00000E+00       9.25716E+06       0.00000E+00      -1.15061E+04       2.94029E+01       0.00000E+00       1.00319E+06       0.00000E+00       1.38901E+03       0.00000E+00       0.00000E+00       9.15495E+06       0.00000E+00       4.44451E+08       0.00000E+00      -1.01873E+05      -9.15712E+06       0.00000E+00       1.23087E+03       0.00000E+00       4.44404E+08       0.00000E+00       0.00000E+00      -6.50852E+03       0.00000E+00      -1.31679E+05       0.00000E+00       3.34410E+09
         73   0.73000E+00       1.47854E+06       0.00000E+00       7.26734E+01       0.00000E+00      -9.10581E+06       0.00000E+00       0.00000E+00       1.47832E+06       0.00000E+00       9.10315E+06       0.00000E+00      -1.14834E+04       2.93332E+01       0.00000E+00       9.96345E+05       0.00000E+00       1.38462E+03       0.00000E+00       0.00000E+00       9.00096E+06       0.00000E+00       4.41015E+08       0.00000E+00      -1.01906E+05      -9.00313E+06       0.00000E+00       1.22625E+03       0.00000E+00       4.40968E+08       0.00000E+00       0.00000E+00      -6.49502E+03       0.00000E+00      -1.31635E+05       0.00000E+00       3.22518E+09
         74   0.74000E+00       1.42413E+06       0.00000E+00       7.24146E+01       0.00000E+00      -8.95141E+06       0.00000E+00       0.00000E+00       1.42391E+06       0.00000E+00       8.94875E+06       0.00000E+00      -1.14398E+04       2.92287E+01       0.00000E+00       9.89438E+05       0.00000E+00       1.37939E+03       0.00000E+00       0.00000E+00       8.84676E+06       0.00000E+00       4.37546E+08       0.00000E+00      -1.01748E+05      -8.84892E+06       0.00000E+00       1.22123E+03       0.00000E+00       4.37500E+08       0.00000E+00       0.00000E+00      -6.47039E+03       0.00000E+00      -1.31346E+05       0.00000E+00       3.10684E+09
         75   0.75000E+00       1.37005E+06       0.00000E+00       7.20294E+01       0.00000E+00      -8.79671E+06       0.00000E+00       0.00000E+00       1.36983E+06       0.00000E+00       8.79406E+06       0.00000E+00      -1.13757E+04       2.90894E+01       0.00000E+00       9.82473E+05       0.00000E+00       1.37332E+03       0.00000E+00       0.00000E+00       8.69243E+06       0.00000E+00       4.34046E+08       0.00000E+00      -1.01401E+05      -8.69459E+06       0.00000E+00       1.21580E+03       0.00000E+00       4.34000E+08       0.00000E+00       0.00000E+00      -6.43468E+03       0.00000E+00      -1.30813E+05       0.00000E+00       2.98914E+09
         76   0.76000E+00       1.31630E+06       0.00000E+00       7.15185E+01       0.00000E+00      -8.64172E+06       0.00000E+00       0.00000E+00       1.31608E+06       0.00000E+00       8.63909E+06       0.00000E+00      -1.12909E+04       2.89154E+01       0.00000E+00       9.75450E+05       0.00000E+00       1.36641E+03       0.00000E+00       0.00000E+00       8.53799E+06       0.00000E+00       4.30515E+08       0.00000E+00      -1.00865E+05      -8.54013E+06       0.00000E+00       1.20997E+03       0.00000E+00       4.30468E+08       0.00000E+00       0.00000E+00      -6.38792E+03       0.00000E+00      -1.30037E+05       0.00000E+00       2.87211E+09
         77   0.77000E+00       1.26293E+06       0.00000E+00       7.08828E+01       0.00000E+00      -8.48653E+06       0.00000E+00       0.00000E+00       1.26271E+06       0.00000E+00       8.48391E+06       0.00000E+00      -1.11857E+04       2.87069E+01       0.00000E+00       9.68370E+05       0.00000E+00       1.35865E+03       0.00000E+00       0.00000E+00       8.38351E+06       0.00000E+00       4.26953E+08       0.00000E+00      -1.00142E+05      -8.38564E+06       0.00000E+00       1.20373E+03       0.00000E+00       4.26907E+08       0.00000E+00       0.00000E+00      -6.33021E+03       0.00000E+00      -1.29020E+05       0.00000E+00       2.75581E+09
         78   0.78000E+00       1.20994E+06       0.00000E+00       7.01233E+01       0.00000E+00      -8.33113E+06       0.00000E+00       0.00000E+00       1.20972E+06       0.00000E+00       8.32854E+06       0.00000E+00      -1.10603E+04       2.84641E+01       0.00000E+00       9.61231E+05       0.00000E+00       1.35006E+03       0.00000E+00       0.00000E+00       8.22900E+06       0.00000E+00       4.23359E+08       0.00000E+00      -9.92314E+04      -8.23111E+06       0.00000E+00       1.19707E+03       0.00000E+00       4.23314E+08       0.00000E+00       0.00000E+00      -6.26162E+03       0.00000E+00      -1.27763E+05       0.00000E+00       2.64027E+09
         79   0.79000E+00       1.15736E+06       0.00000E+00       6.92413E+01       0.00000E+00      -8.17561E+06       0.00000E+00       0.00000E+00       1.15714E+06       0.00000E+00       8.17305E+06       0.00000E+00      -1.09149E+04       2.81874E+01       0.00000E+00       9.54038E+05       0.00000E+00       1.34063E+03       0.00000E+00       0.00000E+00       8.07454E+06       0.00000E+00       4.19737E+08       0.00000E+00      -9.81366E+04      -8.07663E+06       0.00000E+00       1.19001E+03       0.00000E+00       4.19691E+08       0.00000E+00       0.00000E+00      -6.18228E+03       0.00000E+00      -1.26270E+05       0.00000E+00       2.52554E+09
         80   0.80000E+00       1.10519E+06       0.00000E+00       6.82384E+01       0.00000E+00      -8.01998E+06       0.00000E+00       0.00000E+00       1.10497E+06       0.00000E+00       8.01745E+06       0.00000E+00      -1.07498E+04       2.78769E+01       0.00000E+00       9.46788E+05       0.00000E+00       1.33038E+03       0.00000E+00       0.00000E+00       7.92013E+06       0.00000E+00       4.16084E+08       0.00000E+00      -9.68589E+04      -7.92219E+06       0.00000E+00       1.18254E+03       0.00000E+00       4.16039E+08       0.00000E+00       0.00000E+00      -6.09232E+03       0.00000E+00      -1.24541E+05       0.00000E+00       2.41165E+09
         81   0.81000E+00       1.05346E+06       0.00000E+00       6.71164E+01       0.00000E+00      -7.86431E+06       0.00000E+00       0.00000E+00       1.05324E+06       0.00000E+00       7.86182E+06       0.00000E+00      -1.05652E+04       2.75334E+01       0.00000E+00       9.39483E+05       0.00000E+00       1.31930E+03       0.00000E+00       0.00000E+00       7.76586E+06       0.00000E+00       4.12403E+08       0.00000E+00      -9.54013E+04      -7.76789E+06       0.00000E+00       1.17465E+03       0.00000E+00       4.12358E+08       0.00000E+00       0.00000E+00      -5.99191E+03       0.00000E+00      -1.22582E+05       0.00000E+00       2.29864E+09
         82   0.82000E+00       1.00218E+06       0.00000E+00       6.58773E+01       0.00000E+00      -7.70861E+06       0.00000E+00       0.00000E+00       1.00197E+06       0.00000E+00       7.70615E+06       0.00000E+00      -1.03615E+04       2.71570E+01       0.00000E+00       9.32121E+05       0.00000E+00       1.30740E+03       0.00000E+00       0.00000E+00       7.61171E+06       0.00000E+00       4.08692E+08       0.00000E+00      -9.37661E+04      -7.61371E+06       0.00000E+00       1.16636E+03       0.00000E+00       4.08647E+08       0.00000E+00       0.00000E+00      -5.88121E+03       0.00000E+00      -1.20396E+05       0.00000E+00       2.18654E+09
         83   0.83000E+00       9.51374E+05       0.00000E+00       6.45232E+01       0.00000E+00      -7.55296E+06       0.00000E+00       0.00000E+00       9.51163E+05       0.00000E+00       7.55054E+06       0.00000E+00      -1.01390E+04       2.67485E+01       0.00000E+00       9.24707E+05       0.00000E+00       1.29470E+03       0.00000E+00       0.00000E+00       7.45776E+06       0.00000E+00       4.04953E+08       0.00000E+00      -9.19568E+04      -7.45974E+06       0.00000E+00       1.15766E+03       0.00000E+00       4.04909E+08       0.00000E+00       0.00000E+00      -5.76043E+03       0.00000E+00      -1.17986E+05       0.00000E+00       2.07539E+09
         84   0.84000E+00       9.01045E+05       0.00000E+00       6.30568E+01       0.00000E+00      -7.39734E+06       0.00000E+00       0.00000E+00       9.00837E+05       0.00000E+00       7.39497E+06       0.00000E+00      -9.89825E+03       2.63084E+01       0.00000E+00       9.17236E+05       0.00000E+00       1.28120E+03       0.00000E+00       0.00000E+00       7.30402E+06       0.00000E+00       4.01186E+08       0.00000E+00      -8.99765E+04      -7.30595E+06       0.00000E+00       1.14856E+03       0.00000E+00       4.01142E+08       0.00000E+00       0.00000E+00      -5.62977E+03       0.00000E+00      -1.15357E+05       0.00000E+00       1.96521E+09
         85   0.85000E+00       8.51217E+05       0.00000E+00       6.14805E+01       0.00000E+00      -7.24186E+06       0.00000E+00       0.00000E+00       8.51014E+05       0.00000E+00       7.23954E+06       0.00000E+00      -9.63961E+03       2.58373E+01       0.00000E+00       9.09714E+05       0.00000E+00       1.26691E+03       0.00000E+00       0.00000E+00       7.15056E+06       0.00000E+00       3.97392E+08       0.00000E+00      -8.78293E+04      -7.15245E+06       0.00000E+00       1.13905E+03       0.00000E+00       3.97348E+08       0.00000E+00       0.00000E+00      -5.48948E+03       0.00000E+00      -1.12515E+05       0.00000E+00       1.85606E+09
         86   0.86000E+00       8.01892E+05       0.00000E+00       5.97972E+01       0.00000E+00      -7.08648E+06       0.00000E+00       0.00000E+00       8.01692E+05       0.00000E+00       7.08422E+06       0.00000E+00      -9.36354E+03       2.53360E+01       0.00000E+00       9.02135E+05       0.00000E+00       1.25186E+03       0.00000E+00       0.00000E+00       6.99736E+06       0.00000E+00       3.93570E+08       0.00000E+00      -8.55190E+04      -6.99921E+06       0.00000E+00       1.12915E+03       0.00000E+00       3.93527E+08       0.00000E+00       0.00000E+00      -5.33979E+03       0.00000E+00      -1.09464E+05       0.00000E+00       1.74792E+09
         87   0.87000E+00       7.53092E+05       0.00000E+00       5.80101E+01       0.00000E+00      -6.93132E+06       0.00000E+00       0.00000E+00       7.52898E+05       0.00000E+00       6.92911E+06       0.00000E+00      -9.07060E+03       2.48052E+01       0.00000E+00       8.94505E+05       0.00000E+00       1.23604E+03       0.00000E+00       0.00000E+00       6.84451E+06       0.00000E+00       3.89722E+08       0.00000E+00      -8.30502E+04      -6.84632E+06       0.00000E+00       1.11885E+03       0.00000E+00       3.89679E+08       0.00000E+00       0.00000E+00      -5.18100E+03       0.00000E+00      -1.06210E+05       0.00000E+00       1.64086E+09
         88   0.88000E+00       7.04819E+05       0.00000E+00       5.61224E+01       0.00000E+00      -6.77633E+06       0.00000E+00       0.00000E+00       7.04628E+05       0.00000E+00       6.77419E+06       0.00000E+00      -8.76129E+03       2.42457E+01       0.00000E+00       8.86820E+05       0.00000E+00       1.21948E+03       0.00000E+00       0.00000E+00       6.69199E+06       0.00000E+00       3.85846E+08       0.00000E+00      -8.04273E+04      -6.69375E+06       0.00000E+00       1.10816E+03       0.00000E+00       3.85805E+08       0.00000E+00       0.00000E+00      -5.01336E+03       0.00000E+00      -1.02760E+05       0.00000E+00       1.53487E+09
         89   0.89000E+00       6.57092E+05       0.00000E+00       5.41375E+01       0.00000E+00      -6.62162E+06       0.00000E+00       0.00000E+00       6.56908E+05       0.00000E+00       6.61954E+06       0.00000E+00      -8.43623E+03       2.36584E+01       0.00000E+00       8.79085E+05       0.00000E+00       1.20220E+03       0.00000E+00       0.00000E+00       6.53988E+06       0.00000E+00       3.81946E+08       0.00000E+00      -7.76557E+04      -6.54159E+06       0.00000E+00       1.09709E+03       0.00000E+00       3.81905E+08       0.00000E+00       0.00000E+00      -4.83721E+03       0.00000E+00      -9.91195E+04       0.00000E+00       1.43000E+09
         90   0.90000E+00       6.09909E+05       0.00000E+00       5.20591E+01       0.00000E+00      -6.46716E+06       0.00000E+00       0.00000E+00       6.09730E+05       0.00000E+00       6.46515E+06       0.00000E+00      -8.09597E+03       2.30443E+01       0.00000E+00       8.71295E+05       0.00000E+00       1.18421E+03       0.00000E+00       0.00000E+00       6.38815E+06       0.00000E+00       3.78019E+08       0.00000E+00      -7.47402E+04      -6.38981E+06       0.00000E+00       1.08564E+03       0.00000E+00       3.77979E+08       0.00000E+00       0.00000E+00      -4.65284E+03       0.00000E+00      -9.52960E+04       0.00000E+00       1.32626E+09
         91   0.91000E+00       5.63292E+05       0.00000E+00       4.98910E+01       0.00000E+00      -6.31305E+06       0.00000E+00       0.00000E+00       5.63120E+05       0.00000E+00       6.31111E+06       0.00000E+00      -7.74120E+03       2.24042E+01       0.00000E+00       8.63455E+05       0.00000E+00       1.16553E+03       0.00000E+00       0.00000E+00       6.23690E+06       0.00000E+00       3.74068E+08       0.00000E+00      -7.16866E+04      -6.23851E+06       0.00000E+00       1.07381E+03       0.00000E+00       3.74029E+08       0.00000E+00       0.00000E+00      -4.46060E+03       0.00000E+00      -9.12966E+04       0.00000E+00       1.22367E+09
         92   0.92000E+00       5.17236E+05       0.00000E+00       4.76373E+01       0.00000E+00      -6.15924E+06       0.00000E+00       0.00000E+00       5.17069E+05       0.00000E+00       6.15738E+06       0.00000E+00      -7.37253E+03       2.17392E+01       0.00000E+00       8.55560E+05       0.00000E+00       1.14618E+03       0.00000E+00       0.00000E+00       6.08609E+06       0.00000E+00       3.70092E+08       0.00000E+00      -6.85005E+04      -6.08764E+06       0.00000E+00       1.06161E+03       0.00000E+00       3.70053E+08       0.00000E+00       0.00000E+00      -4.26085E+03       0.00000E+00      -8.71286E+04       0.00000E+00       1.12224E+09
         93   0.93000E+00       4.71758E+05       0.00000E+00       4.53019E+01       0.00000E+00      -6.00585E+06       0.00000E+00       0.00000E+00       4.71599E+05       0.00000E+00       6.00406E+06       0.00000E+00      -6.99069E+03       2.10505E+01       0.00000E+00       8.47616E+05       0.00000E+00       1.12618E+03       0.00000E+00       0.00000E+00       5.93580E+06       0.00000E+00       3.66091E+08       0.00000E+00      -6.51882E+04      -5.93729E+06       0.00000E+00       1.04906E+03       0.00000E+00       3.66053E+08       0.00000E+00       0.00000E+00      -4.05394E+03       0.00000E+00      -8.28000E+04       0.00000E+00       1.02201E+09
         94   0.94000E+00       4.26855E+05       0.00000E+00       4.28893E+01       0.00000E+00      -5.85283E+06       0.00000E+00       0.00000E+00       4.26702E+05       0.00000E+00       5.85112E+06       0.00000E+00      -6.59636E+03       2.03389E+01       0.00000E+00       8.39618E+05       0.00000E+00       1.10555E+03       0.00000E+00       0.00000E+00       5.78600E+06       0.00000E+00       3.62066E+08       0.00000E+00      -6.17556E+04      -5.78743E+06       0.00000E+00       1.03615E+03       0.00000E+00       3.62029E+08       0.00000E+00       0.00000E+00      -3.84024E+03       0.00000E+00      -7.83190E+04       0.00000E+00       9.22956E+08
         95   0.95000E+00       3.82543E+05       0.00000E+00       4.04038E+01       0.00000E+00      -5.70028E+06       0.00000E+00       0.00000E+00       3.82398E+05       0.00000E+00       5.69865E+06       0.00000E+00      -6.19032E+03       1.96057E+01       0.00000E+00       8.31572E+05       0.00000E+00       1.08432E+03       0.00000E+00       0.00000E+00       5.63677E+06       0.00000E+00       3.58018E+08       0.00000E+00      -5.82094E+04      -5.63815E+06       0.00000E+00       1.02289E+03       0.00000E+00       3.57982E+08       0.00000E+00       0.00000E+00      -3.62017E+03       0.00000E+00      -7.36940E+04       0.00000E+00       8.25132E+08
         96   0.96000E+00       3.38813E+05       0.00000E+00       3.78502E+01       0.00000E+00      -5.54815E+06       0.00000E+00       0.00000E+00       3.38675E+05       0.00000E+00       5.54660E+06       0.00000E+00      -5.77328E+03       1.88521E+01       0.00000E+00       8.23471E+05       0.00000E+00       1.06251E+03       0.00000E+00       0.00000E+00       5.48808E+06       0.00000E+00       3.53946E+08       0.00000E+00      -5.45562E+04      -5.48938E+06       0.00000E+00       1.00930E+03       0.00000E+00       3.53910E+08       0.00000E+00       0.00000E+00      -3.39411E+03       0.00000E+00      -6.89336E+04       0.00000E+00       7.28515E+08
         97   0.97000E+00       2.95685E+05       0.00000E+00       3.52330E+01       0.00000E+00      -5.39655E+06       0.00000E+00       0.00000E+00       2.95555E+05       0.00000E+00       5.39509E+06       0.00000E+00      -5.34606E+03       1.80793E+01       0.00000E+00       8.15322E+05       0.00000E+00       1.04015E+03       0.00000E+00       0.00000E+00       5.34001E+06       0.00000E+00       3.49852E+08       0.00000E+00      -5.08031E+04      -5.34125E+06       0.00000E+00       9.95384E+02       0.00000E+00       3.49817E+08       0.00000E+00       0.00000E+00      -3.16248E+03       0.00000E+00      -6.40470E+04       0.00000E+00       6.33146E+08
         98   0.98000E+00       2.53146E+05       0.00000E+00       3.25572E+01       0.00000E+00      -5.24544E+06       0.00000E+00       0.00000E+00       2.53023E+05       0.00000E+00       5.24406E+06       0.00000E+00      -4.90942E+03       1.72885E+01       0.00000E+00       8.07120E+05       0.00000E+00       1.01726E+03       0.00000E+00       0.00000E+00       5.19251E+06       0.00000E+00       3.45734E+08       0.00000E+00      -4.69569E+04      -5.19368E+06       0.00000E+00       9.81143E+02       0.00000E+00       3.45700E+08       0.00000E+00       0.00000E+00      -2.92571E+03       0.00000E+00      -5.90432E+04       0.00000E+00       5.39001E+08
         99   0.99000E+00       2.11212E+05       0.00000E+00       2.98276E+01       0.00000E+00      -5.09490E+06       0.00000E+00       0.00000E+00       2.11099E+05       0.00000E+00       5.09361E+06       0.00000E+00      -4.46422E+03       1.64811E+01       0.00000E+00       7.98869E+05       0.00000E+00       9.93867E+02       0.00000E+00       0.00000E+00       5.04567E+06       0.00000E+00       3.41595E+08       0.00000E+00      -4.30251E+04      -5.04678E+06       0.00000E+00       9.66597E+02       0.00000E+00       3.41562E+08       0.00000E+00       0.00000E+00      -2.68424E+03       0.00000E+00      -5.39318E+04       0.00000E+00       4.46119E+08
        100   0.10000E+01       1.69873E+05       0.00000E+00       2.70494E+01       0.00000E+00      -4.94489E+06       0.00000E+00       0.00000E+00       1.69767E+05       0.00000E+00       4.94370E+06       0.00000E+00      -4.01126E+03       1.56582E+01       0.00000E+00       7.90566E+05       0.00000E+00       9.69997E+02       0.00000E+00       0.00000E+00       4.89944E+06       0.00000E+00       3.37433E+08       0.00000E+00      -3.90148E+04      -4.90048E+06       0.00000E+00       9.51748E+02       0.00000E+00       3.37401E+08       0.00000E+00       0.00000E+00      -2.43850E+03       0.00000E+00      -4.87223E+04       0.00000E+00       3.54474E+08
        101   0.10100E+01       1.29142E+05       0.00000E+00       2.42276E+01       0.00000E+00      -4.79551E+06       0.00000E+00       0.00000E+00       1.29046E+05       0.00000E+00       4.79441E+06       0.00000E+00      -3.55143E+03       1.48214E+01       0.00000E+00       7.82215E+05       0.00000E+00       9.45684E+02       0.00000E+00       0.00000E+00       4.75391E+06       0.00000E+00       3.33251E+08       0.00000E+00      -3.49340E+04      -4.75488E+06       0.00000E+00       9.36613E+02       0.00000E+00       3.33220E+08       0.00000E+00       0.00000E+00      -2.18895E+03       0.00000E+00      -4.34246E+04       0.00000E+00       2.64100E+08
        102   0.10200E+01       8.90065E+04       0.00000E+00       2.13675E+01       0.00000E+00      -4.64671E+06       0.00000E+00       0.00000E+00       8.89182E+04       0.00000E+00       4.64570E+06       0.00000E+00      -3.08553E+03       1.39719E+01       0.00000E+00       7.73811E+05       0.00000E+00       9.20951E+02       0.00000E+00       0.00000E+00       4.60902E+06       0.00000E+00       3.29046E+08       0.00000E+00      -3.07900E+04      -4.60992E+06       0.00000E+00       9.21198E+02       0.00000E+00       3.29016E+08       0.00000E+00       0.00000E+00      -1.93604E+03       0.00000E+00      -3.80486E+04       0.00000E+00       1.74969E+08
        103   0.10300E+01       4.94791E+04       0.00000E+00       1.84744E+01       0.00000E+00      -4.49858E+06       0.00000E+00       0.00000E+00       4.94012E+04       0.00000E+00       4.49767E+06       0.00000E+00      -2.61451E+03       1.31111E+01       0.00000E+00       7.65360E+05       0.00000E+00       8.95832E+02       0.00000E+00       0.00000E+00       4.46486E+06       0.00000E+00       3.24822E+08       0.00000E+00      -2.65910E+04      -4.46569E+06       0.00000E+00       9.05519E+02       0.00000E+00       3.24794E+08       0.00000E+00       0.00000E+00      -1.68026E+03       0.00000E+00      -3.26046E+04       0.00000E+00       8.71129E+07
        104   0.10400E+01       1.05464E+04       0.00000E+00       1.55537E+01       0.00000E+00      -4.35107E+06       0.00000E+00       0.00000E+00       1.04763E+04       0.00000E+00       4.35026E+06       0.00000E+00      -2.13918E+03       1.22404E+01       0.00000E+00       7.56857E+05       0.00000E+00       8.70354E+02       0.00000E+00       0.00000E+00       4.32138E+06       0.00000E+00       3.20577E+08       0.00000E+00      -2.23445E+04      -4.32212E+06       0.00000E+00       8.89582E+02       0.00000E+00       3.20549E+08       0.00000E+00       0.00000E+00      -1.42205E+03       0.00000E+00      -2.71027E+04       0.00000E+00       5.00810E+05
        105   0.10500E+01      -2.77809E+04       0.00000E+00       1.26107E+01       0.00000E+00      -4.20428E+06       0.00000E+00       0.00000E+00      -2.78404E+04       0.00000E+00       4.20356E+06       0.00000E+00      -1.66049E+03       1.13613E+01       0.00000E+00       7.48307E+05       0.00000E+00       8.44551E+02       0.00000E+00       0.00000E+00       4.17865E+06       0.00000E+00       3.16312E+08       0.00000E+00      -1.80588E+04      -4.17932E+06       0.00000E+00       8.73405E+02       0.00000E+00       3.16286E+08       0.00000E+00       0.00000E+00      -1.16192E+03       0.00000E+00      -2.15534E+04       0.00000E+00      -8.48386E+07
        106   0.10600E+01      -6.55176E+04       0.00000E+00       9.65091E+00       0.00000E+00      -4.05814E+06       0.00000E+00       0.00000E+00      -6.55691E+04       0.00000E+00       4.05752E+06       0.00000E+00      -1.17929E+03       1.04751E+01       0.00000E+00       7.39704E+05       0.00000E+00       8.18449E+02       0.00000E+00       0.00000E+00       4.03662E+06       0.00000E+00       3.12027E+08       0.00000E+00      -1.37418E+04      -4.03721E+06       0.00000E+00       8.56993E+02       0.00000E+00       3.12001E+08       0.00000E+00       0.00000E+00      -9.00315E+02       0.00000E+00      -1.59670E+04       0.00000E+00      -1.68939E+08
[...]
       5972   0.59720E+02       2.29775E+04       0.00000E+00       2.19747E+01       0.00000E+00      -3.71193E+04       0.00000E+00       0.00000E+00       2.28898E+04       0.00000E+00       3.63609E+04       0.00000E+00      -3.44602E+03       5.70221E+00       0.00000E+00      -8.42684E+03       0.00000E+00       1.20939E+02       0.00000E+00       0.00000E+00       2.62007E+04       0.00000E+00      -6.97303E+04       0.00000E+00      -3.09914E+04      -2.67687E+04       0.00000E+00       3.07487E+01       0.00000E+00      -7.44270E+04       0.00000E+00       0.00000E+00      -2.17525E+03       0.00000E+00      -4.30922E+04       0.00000E+00       1.00356E+07
       5973   0.59730E+02       2.33509E+04       0.00000E+00       2.45750E+01       0.00000E+00      -3.82359E+04       0.00000E+00       0.00000E+00       2.32507E+04       0.00000E+00       3.73984E+04       0.00000E+00      -3.85077E+03       6.37746E+00       0.00000E+00      -8.64272E+03       0.00000E+00       1.32966E+02       0.00000E+00       0.00000E+00       2.60270E+04       0.00000E+00      -1.03350E+05       0.00000E+00      -3.45320E+04      -2.66558E+04       0.00000E+00       3.26270E+01       0.00000E+00      -1.08013E+05       0.00000E+00       0.00000E+00      -2.43041E+03       0.00000E+00      -4.81125E+04       0.00000E+00       1.02960E+07
       5974   0.59740E+02       2.37193E+04       0.00000E+00       2.71289E+01       0.00000E+00      -3.93571E+04       0.00000E+00       0.00000E+00       2.36117E+04       0.00000E+00       3.84218E+04       0.00000E+00      -4.24815E+03       7.04045E+00       0.00000E+00      -8.85299E+03       0.00000E+00       1.44763E+02       0.00000E+00       0.00000E+00       2.58499E+04       0.00000E+00      -1.33606E+05       0.00000E+00      -3.80083E+04      -2.65482E+04       0.00000E+00       3.44620E+01       0.00000E+00      -1.39111E+05       0.00000E+00       0.00000E+00      -2.68090E+03       0.00000E+00      -5.30427E+04       0.00000E+00       1.05812E+07
       5975   0.59750E+02       2.40694E+04       0.00000E+00       2.96308E+01       0.00000E+00      -4.04162E+04       0.00000E+00       0.00000E+00       2.39503E+04       0.00000E+00       3.94051E+04       0.00000E+00      -4.63755E+03       7.68993E+00       0.00000E+00      -9.06117E+03       0.00000E+00       1.56302E+02       0.00000E+00       0.00000E+00       2.56679E+04       0.00000E+00      -1.65996E+05       0.00000E+00      -4.14134E+04      -2.64248E+04       0.00000E+00       3.62397E+01       0.00000E+00      -1.71418E+05       0.00000E+00       0.00000E+00      -2.92637E+03       0.00000E+00      -5.78720E+04       0.00000E+00       1.08284E+07
       5976   0.59760E+02       2.44142E+04       0.00000E+00       3.20767E+01       0.00000E+00      -4.14775E+04       0.00000E+00       0.00000E+00       2.42884E+04       0.00000E+00       4.03729E+04       0.00000E+00      -5.01808E+03       8.32469E+00       0.00000E+00      -9.26293E+03       0.00000E+00       1.67570E+02       0.00000E+00       0.00000E+00       2.54853E+04       0.00000E+00      -1.94882E+05       0.00000E+00      -4.47412E+04      -2.63086E+04       0.00000E+00       3.79699E+01       0.00000E+00      -2.01064E+05       0.00000E+00       0.00000E+00      -3.16622E+03       0.00000E+00      -6.25928E+04       0.00000E+00       1.11002E+07
       5977   0.59770E+02       2.47406E+04       0.00000E+00       3.44613E+01       0.00000E+00      -4.24755E+04       0.00000E+00       0.00000E+00       2.46033E+04       0.00000E+00       4.12987E+04       0.00000E+00      -5.38918E+03       8.94351E+00       0.00000E+00      -9.46158E+03       0.00000E+00       1.78538E+02       0.00000E+00       0.00000E+00       2.52985E+04       0.00000E+00      -2.25747E+05       0.00000E+00      -4.79852E+04      -2.61777E+04       0.00000E+00       3.96388E+01       0.00000E+00      -2.31885E+05       0.00000E+00       0.00000E+00      -3.40014E+03       0.00000E+00      -6.71946E+04       0.00000E+00       1.13327E+07
       5978   0.59780E+02       2.50610E+04       0.00000E+00       3.67807E+01       0.00000E+00      -4.34722E+04       0.00000E+00       0.00000E+00       2.49173E+04       0.00000E+00       4.22059E+04       0.00000E+00      -5.74999E+03       9.54525E+00       0.00000E+00      -9.65316E+03       0.00000E+00       1.89197E+02       0.00000E+00       0.00000E+00       2.51146E+04       0.00000E+00      -2.53013E+05       0.00000E+00      -5.11396E+04      -2.60560E+04       0.00000E+00       4.12566E+01       0.00000E+00      -2.59959E+05       0.00000E+00       0.00000E+00      -3.62755E+03       0.00000E+00      -7.16705E+04       0.00000E+00       1.15889E+07
       5979   0.59790E+02       2.53626E+04       0.00000E+00       3.90299E+01       0.00000E+00      -4.44032E+04       0.00000E+00       0.00000E+00       2.52081E+04       0.00000E+00       4.30695E+04       0.00000E+00      -6.09998E+03       1.01288E+01       0.00000E+00      -9.84081E+03       0.00000E+00       1.99519E+02       0.00000E+00       0.00000E+00       2.49272E+04       0.00000E+00      -2.82176E+05       0.00000E+00      -5.41981E+04      -2.59223E+04       0.00000E+00       4.28093E+01       0.00000E+00      -2.88978E+05       0.00000E+00       0.00000E+00      -3.84814E+03       0.00000E+00      -7.60102E+04       0.00000E+00       1.18061E+07
       5980   0.59800E+02       2.56577E+04       0.00000E+00       4.12052E+01       0.00000E+00      -4.53304E+04       0.00000E+00       0.00000E+00       2.54976E+04       0.00000E+00       4.39119E+04       0.00000E+00      -6.43834E+03       1.06930E+01       0.00000E+00      -1.00207E+04       0.00000E+00       2.09494E+02       0.00000E+00       0.00000E+00       2.47446E+04       0.00000E+00      -3.07626E+05       0.00000E+00      -5.71555E+04      -2.57993E+04       0.00000E+00       4.43074E+01       0.00000E+00      -3.15206E+05       0.00000E+00       0.00000E+00      -4.06139E+03       0.00000E+00      -8.02072E+04       0.00000E+00       1.20457E+07
       5981   0.59810E+02       2.59336E+04       0.00000E+00       4.33019E+01       0.00000E+00      -4.61892E+04       0.00000E+00       0.00000E+00       2.57631E+04       0.00000E+00       4.47089E+04       0.00000E+00      -6.76457E+03       1.12368E+01       0.00000E+00      -1.01959E+04       0.00000E+00       2.19096E+02       0.00000E+00       0.00000E+00       2.45619E+04       0.00000E+00      -3.34864E+05       0.00000E+00      -6.00056E+04      -2.56652E+04       0.00000E+00       4.57371E+01       0.00000E+00      -3.42289E+05       0.00000E+00       0.00000E+00      -4.26700E+03       0.00000E+00      -8.42520E+04       0.00000E+00       1.22458E+07
       5982   0.59820E+02       2.62028E+04       0.00000E+00       4.53166E+01       0.00000E+00      -4.70419E+04       0.00000E+00       0.00000E+00       2.60270E+04       0.00000E+00       4.54827E+04       0.00000E+00      -7.07792E+03       1.17592E+01       0.00000E+00      -1.03625E+04       0.00000E+00       2.28316E+02       0.00000E+00       0.00000E+00       2.43849E+04       0.00000E+00      -3.58263E+05       0.00000E+00      -6.27438E+04      -2.55433E+04       0.00000E+00       4.71090E+01       0.00000E+00      -3.66455E+05       0.00000E+00       0.00000E+00      -4.46447E+03       0.00000E+00      -8.81387E+04       0.00000E+00       1.24676E+07
       5983   0.59830E+02       2.64521E+04       0.00000E+00       4.72448E+01       0.00000E+00      -4.78246E+04       0.00000E+00       0.00000E+00       2.62667E+04       0.00000E+00       4.62088E+04       0.00000E+00      -7.37794E+03       1.22592E+01       0.00000E+00      -1.05240E+04       0.00000E+00       2.37130E+02       0.00000E+00       0.00000E+00       2.42101E+04       0.00000E+00      -3.83432E+05       0.00000E+00      -6.53642E+04      -2.54133E+04       0.00000E+00       4.84095E+01       0.00000E+00      -3.91434E+05       0.00000E+00       0.00000E+00      -4.65355E+03       0.00000E+00      -9.18580E+04       0.00000E+00       1.26494E+07
       5984   0.59840E+02       2.66943E+04       0.00000E+00       4.90837E+01       0.00000E+00      -4.85984E+04       0.00000E+00       0.00000E+00       2.65044E+04       0.00000E+00       4.69101E+04       0.00000E+00      -7.66390E+03       1.27359E+01       0.00000E+00      -1.06761E+04       0.00000E+00       2.45532E+02       0.00000E+00       0.00000E+00       2.40422E+04       0.00000E+00      -4.04685E+05       0.00000E+00      -6.78626E+04      -2.52969E+04       0.00000E+00       4.96491E+01       0.00000E+00      -4.13357E+05       0.00000E+00       0.00000E+00      -4.83375E+03       0.00000E+00      -9.54049E+04       0.00000E+00       1.28513E+07
       5985   0.59850E+02       2.69166E+04       0.00000E+00       5.08289E+01       0.00000E+00      -4.93006E+04       0.00000E+00       0.00000E+00       2.67178E+04       0.00000E+00       4.75618E+04       0.00000E+00      -7.93543E+03       1.31884E+01       0.00000E+00      -1.08225E+04       0.00000E+00       2.53496E+02       0.00000E+00       0.00000E+00       2.38789E+04       0.00000E+00      -4.27530E+05       0.00000E+00      -7.02336E+04      -2.51728E+04       0.00000E+00       5.08147E+01       0.00000E+00      -4.36057E+05       0.00000E+00       0.00000E+00      -5.00487E+03       0.00000E+00      -9.87708E+04       0.00000E+00       1.30143E+07
       5986   0.59860E+02       2.71317E+04       0.00000E+00       5.24779E+01       0.00000E+00      -4.99924E+04       0.00000E+00       0.00000E+00       2.69292E+04       0.00000E+00       4.81860E+04       0.00000E+00      -8.19185E+03       1.36158E+01       0.00000E+00      -1.09590E+04       0.00000E+00       2.61019E+02       0.00000E+00       0.00000E+00       2.37240E+04       0.00000E+00      -4.46409E+05       0.00000E+00      -7.24735E+04      -2.50641E+04       0.00000E+00       5.19167E+01       0.00000E+00      -4.55650E+05       0.00000E+00       0.00000E+00      -5.16645E+03       0.00000E+00      -1.01951E+05       0.00000E+00       1.31970E+07
       5987   0.59870E+02       2.73260E+04       0.00000E+00       5.40268E+01       0.00000E+00      -5.06095E+04       0.00000E+00       0.00000E+00       2.71152E+04       0.00000E+00       4.87610E+04       0.00000E+00      -8.43283E+03       1.40173E+01       0.00000E+00      -1.10891E+04       0.00000E+00       2.68078E+02       0.00000E+00       0.00000E+00       2.35746E+04       0.00000E+00      -4.66841E+05       0.00000E+00      -7.45774E+04      -2.49494E+04       0.00000E+00       5.29423E+01       0.00000E+00      -4.75829E+05       0.00000E+00       0.00000E+00      -5.31831E+03       0.00000E+00      -1.04938E+05       0.00000E+00       1.33384E+07
       5988   0.59880E+02       2.75125E+04       0.00000E+00       5.54735E+01       0.00000E+00      -5.12150E+04       0.00000E+00       0.00000E+00       2.72988E+04       0.00000E+00       4.93063E+04       0.00000E+00      -8.65777E+03       1.43922E+01       0.00000E+00      -1.12089E+04       0.00000E+00       2.74670E+02       0.00000E+00       0.00000E+00       2.34353E+04       0.00000E+00      -4.83219E+05       0.00000E+00      -7.65421E+04      -2.48504E+04       0.00000E+00       5.39022E+01       0.00000E+00      -4.92853E+05       0.00000E+00       0.00000E+00      -5.46005E+03       0.00000E+00      -1.07728E+05       0.00000E+00       1.35001E+07
       5989   0.59890E+02       2.76789E+04       0.00000E+00       5.68144E+01       0.00000E+00      -5.17447E+04       0.00000E+00       0.00000E+00       2.74577E+04       0.00000E+00       4.98004E+04       0.00000E+00      -8.86638E+03       1.47398E+01       0.00000E+00      -1.13217E+04       0.00000E+00       2.80773E+02       0.00000E+00       0.00000E+00       2.33028E+04       0.00000E+00      -5.01079E+05       0.00000E+00      -7.83631E+04      -2.47482E+04       0.00000E+00       5.47832E+01       0.00000E+00      -5.10469E+05       0.00000E+00       0.00000E+00      -5.59151E+03       0.00000E+00      -1.10314E+05       0.00000E+00       1.36198E+07
       5990   0.59900E+02       2.78373E+04       0.00000E+00       5.80477E+01       0.00000E+00      -5.22615E+04       0.00000E+00       0.00000E+00       2.76137E+04       0.00000E+00       5.02641E+04       0.00000E+00      -9.05814E+03       1.50594E+01       0.00000E+00      -1.14238E+04       0.00000E+00       2.86387E+02       0.00000E+00       0.00000E+00       2.31827E+04       0.00000E+00      -5.14807E+05       0.00000E+00      -8.00377E+04      -2.46627E+04       0.00000E+00       5.55966E+01       0.00000E+00      -5.24834E+05       0.00000E+00       0.00000E+00      -5.71233E+03       0.00000E+00      -1.12692E+05       0.00000E+00       1.37587E+07
       5991   0.59910E+02       2.79746E+04       0.00000E+00       5.91704E+01       0.00000E+00      -5.27000E+04       0.00000E+00       0.00000E+00       2.77446E+04       0.00000E+00       5.06747E+04       0.00000E+00      -9.23281E+03       1.53503E+01       0.00000E+00      -1.15184E+04       0.00000E+00       2.91492E+02       0.00000E+00       0.00000E+00       2.30685E+04       0.00000E+00      -5.29997E+05       0.00000E+00      -8.15621E+04      -2.45736E+04       0.00000E+00       5.63295E+01       0.00000E+00      -5.39725E+05       0.00000E+00       0.00000E+00      -5.82239E+03       0.00000E+00      -1.14857E+05       0.00000E+00       1.38569E+07
       5992   0.59920E+02       2.81037E+04       0.00000E+00       6.01811E+01       0.00000E+00      -5.31238E+04       0.00000E+00       0.00000E+00       2.78724E+04       0.00000E+00       5.10539E+04       0.00000E+00      -9.38992E+03       1.56122E+01       0.00000E+00      -1.16020E+04       0.00000E+00       2.96089E+02       0.00000E+00       0.00000E+00       2.29676E+04       0.00000E+00      -5.41000E+05       0.00000E+00      -8.29342E+04      -2.45030E+04       0.00000E+00       5.69930E+01       0.00000E+00      -5.51311E+05       0.00000E+00       0.00000E+00      -5.92139E+03       0.00000E+00      -1.16805E+05       0.00000E+00       1.39740E+07
       5993   0.59930E+02       2.82121E+04       0.00000E+00       6.10771E+01       0.00000E+00      -5.34704E+04       0.00000E+00       0.00000E+00       2.79749E+04       0.00000E+00       5.13796E+04       0.00000E+00      -9.52933E+03       1.58444E+01       0.00000E+00      -1.16777E+04       0.00000E+00       3.00159E+02       0.00000E+00       0.00000E+00       2.28759E+04       0.00000E+00      -5.53383E+05       0.00000E+00      -8.41506E+04      -2.44292E+04       0.00000E+00       5.75745E+01       0.00000E+00      -5.63391E+05       0.00000E+00       0.00000E+00      -6.00923E+03       0.00000E+00      -1.18533E+05       0.00000E+00       1.40483E+07
       5994   0.59940E+02       2.83121E+04       0.00000E+00       6.18574E+01       0.00000E+00      -5.38010E+04       0.00000E+00       0.00000E+00       2.80743E+04       0.00000E+00       5.16731E+04       0.00000E+00      -9.65062E+03       1.60465E+01       0.00000E+00      -1.17420E+04       0.00000E+00       3.03706E+02       0.00000E+00       0.00000E+00       2.27983E+04       0.00000E+00      -5.61556E+05       0.00000E+00      -8.52098E+04      -2.43746E+04       0.00000E+00       5.80853E+01       0.00000E+00      -5.72107E+05       0.00000E+00       0.00000E+00      -6.08565E+03       0.00000E+00      -1.20037E+05       0.00000E+00       1.41418E+07
       5995   0.59950E+02       2.83908E+04       0.00000E+00       6.25199E+01       0.00000E+00      -5.40519E+04       0.00000E+00       0.00000E+00       2.81483E+04       0.00000E+00       5.19114E+04       0.00000E+00      -9.75370E+03       1.62182E+01       0.00000E+00      -1.17983E+04       0.00000E+00       3.06714E+02       0.00000E+00       0.00000E+00       2.27285E+04       0.00000E+00      -5.71071E+05       0.00000E+00      -8.61092E+04      -2.43182E+04       0.00000E+00       5.85129E+01       0.00000E+00      -5.81288E+05       0.00000E+00       0.00000E+00      -6.15061E+03       0.00000E+00      -1.21314E+05       0.00000E+00       1.41928E+07
       5996   0.59960E+02       2.84611E+04       0.00000E+00       6.30639E+01       0.00000E+00      -5.42863E+04       0.00000E+00       0.00000E+00       2.82191E+04       0.00000E+00       5.21161E+04       0.00000E+00      -9.83825E+03       1.63591E+01       0.00000E+00      -1.18429E+04       0.00000E+00       3.09186E+02       0.00000E+00       0.00000E+00       2.26734E+04       0.00000E+00      -5.76367E+05       0.00000E+00      -8.68476E+04      -2.42818E+04       0.00000E+00       5.88688E+01       0.00000E+00      -5.87093E+05       0.00000E+00       0.00000E+00      -6.20387E+03       0.00000E+00      -1.22364E+05       0.00000E+00       1.42627E+07
       5997   0.59970E+02       2.85103E+04       0.00000E+00       6.34878E+01       0.00000E+00      -5.44411E+04       0.00000E+00       0.00000E+00       2.82641E+04       0.00000E+00       5.22675E+04       0.00000E+00      -9.90423E+03       1.64690E+01       0.00000E+00      -1.18792E+04       0.00000E+00       3.11109E+02       0.00000E+00       0.00000E+00       2.26287E+04       0.00000E+00      -5.82937E+05       0.00000E+00      -8.74231E+04      -2.42430E+04       0.00000E+00       5.91407E+01       0.00000E+00      -5.93291E+05       0.00000E+00       0.00000E+00      -6.24545E+03       0.00000E+00      -1.23181E+05       0.00000E+00       1.42896E+07
       5998   0.59980E+02       2.85510E+04       0.00000E+00       6.37915E+01       0.00000E+00      -5.45778E+04       0.00000E+00       0.00000E+00       2.83056E+04       0.00000E+00       5.23837E+04       0.00000E+00      -9.95140E+03       1.65476E+01       0.00000E+00      -1.19037E+04       0.00000E+00       3.12489E+02       0.00000E+00       0.00000E+00       2.25976E+04       0.00000E+00      -5.85236E+05       0.00000E+00      -8.78352E+04      -2.42237E+04       0.00000E+00       5.93402E+01       0.00000E+00      -5.96115E+05       0.00000E+00       0.00000E+00      -6.27516E+03       0.00000E+00      -1.23766E+05       0.00000E+00       1.43354E+07
       5999   0.59990E+02       2.85701E+04       0.00000E+00       6.39737E+01       0.00000E+00      -5.46363E+04       0.00000E+00       0.00000E+00       2.83220E+04       0.00000E+00       5.24459E+04       0.00000E+00      -9.97979E+03       1.65948E+01       0.00000E+00      -1.19199E+04       0.00000E+00       3.13314E+02       0.00000E+00       0.00000E+00       2.25784E+04       0.00000E+00      -5.88892E+05       0.00000E+00      -8.80825E+04      -2.42050E+04       0.00000E+00       5.94553E+01       0.00000E+00      -5.99314E+05       0.00000E+00       0.00000E+00      -6.29306E+03       0.00000E+00      -1.24117E+05       0.00000E+00       1.43382E+07
       6000   0.60000E+02       2.85805E+04       0.00000E+00       6.40347E+01       0.00000E+00      -5.46768E+04       0.00000E+00       0.00000E+00       2.83348E+04       0.00000E+00       5.24732E+04       0.00000E+00      -9.98921E+03       1.66106E+01       0.00000E+00      -1.19241E+04       0.00000E+00       3.13593E+02       0.00000E+00       0.00000E+00       2.25737E+04       0.00000E+00      -5.88229E+05       0.00000E+00      -8.81652E+04      -2.42046E+04       0.00000E+00       5.94977E+01       0.00000E+00      -5.99086E+05       0.00000E+00       0.00000E+00      -6.29899E+03       0.00000E+00      -1.24235E+05       0.00000E+00       1.43595E+07

This summary file was closed on 20-Sep-2022 at 10:36:07.

