
This summary file was generated by HydroDyn  on 21-Sep-2022 at 11:50:56.

WAMIT Model - Body    1
------------------
  Displaced volume (m^3)                 :     1.775549E+04
  X-offset of the center of buoyancy (m) :     0.000000E+00
  Y-offset of the center of buoyancy (m) :     0.000000E+00


  Buoyancy loads from members modelled with WAMIT, summed about ( 0.0, 0.0, 0.0 )
                                BuoyFxi               BuoyFyi               BuoyFzi               BuoyMxi               BuoyMyi               BuoyMzi 
                                  (N)                   (N)                   (N)                  (N-m)                 (N-m)                 (N-m)  
  External:                 0.000000E+00          0.000000E+00          1.785359E+08          0.000000E+00         -0.000000E+00          0.000000E+00



Strip-Theory Volume Calculations(m^3)
-------------------------------------
  Structure Volume     :    0.00000E+00
  Submerged Volume     :    0.00000E+00
  Marine Growth Volume :    0.00000E+00
  Ballasted Volume     :    0.00000E+00
              NOTE: Structure, Submerged and Marine Growth volumes are based on members not modelled with WAMIT
                      Ballasted volume is computed from all members which are marked as filled in the HydroDyn input file, regardless of PropPot flag



Total Buoyancy loads summed about ( 0.0, 0.0, 0.0 )
---------------------------------------------------
                                BuoyFxi               BuoyFyi               BuoyFzi               BuoyMxi               BuoyMyi               BuoyMzi 
                                  (N)                   (N)                   (N)                  (N-m)                 (N-m)                 (N-m)  
 External:                  0.000000E+00          0.000000E+00          0.000000E+00          0.000000E+00          0.000000E+00          0.000000E+00
 Internal:                  0.000000E+00          0.000000E+00          0.000000E+00          0.000000E+00          0.000000E+00          0.000000E+00
 Total   :                  0.000000E+00          0.000000E+00          0.000000E+00          0.000000E+00          0.000000E+00          0.000000E+00
              NOTE: External buoyancy is based on members not modelled with WAMIT
                      Internal buoyancy is computed from all members which are marked as filled in the HydroDyn input file, regardless of PropPot flag
                    Total buoyancy does not include WAMIT-modelled buoyancy contribution



Weight loads about ( 0.0, 0.0, 0.0 )
------------------------------------
                                 MGFxi                 MGFyi                 MGFzi                 MGMxi                 MGMyi                 MGMzi  
                                  (N)                   (N)                   (N)                  (N-m)                 (N-m)                 (N-m)  
 Marine Growth:             0.000000E+00          0.000000E+00          0.000000E+00          0.000000E+00          0.000000E+00          0.000000E+00



Nodes (first [   2 ] are joints, remainder are internal nodes)


   i      MbrIndx      Nxi         Nyi         Nzi           R          t          tMG        MGDens     PropPot    FilledFlag  FilledMass      Cd          Ca          Cp         AxCd        AxCa        AxCp        JAxCd       JAxCa       JAxCp  
  (-)       (-)        (m)         (m)         (m)          (m)        (m)         (m)       (kg/m^3)      (-)         (-)        (kg)          (-)         (-)         (-)         (-)         (-)         (-)         (-)         (-)         (-)   
     1      -           0.0000      0.0000      0.0000      -           -        0.000E+00   0.000E+00      -           -           -           -           -           -           -           -           -        0.000E+00   0.000E+00   1.000E+00
     2      -           0.0000      0.0000     -1.0000      -           -        0.000E+00   0.000E+00      -           -           -           -           -           -           -           -           -        0.000E+00   0.000E+00   1.000E+00
     3           1      0.0000      0.0000     -0.5000   5.000E+00   5.000E-02   0.000E+00   0.000E+00           T           F   0.000E+00   0.000E+00   0.000E+00   0.000E+00   0.000E+00   0.000E+00   0.000E+00         -           -           -  



 Members


 MemberID  joint1  joint2      Length       NElem         Volume       MGVolume          R1           t1             R2           t2          PropPot      FilledFlag   FillDensity    FillFSLoc     FillMass         Cd1            Ca1          Cp1          AxCd1         AxCa1         AxCp1        JAxCd1        JAxCa1       JAxCp1           Cd2           Ca2           Cp2          AxCd2         AxCa2         AxCp2        JAxCd2        JAxCa2        JAxCp2   
   (-)      (-)     (-)         (m)          (-)          (m^3)         (m^3)            (m)          (m)            (m)          (m)           (-)           (-)        (kg/m^3)         (-)          (kg)           (-)            (-)          (-)           (-)           (-)           (-)           (-)           (-)          (-)            (-)           (-)           (-)           (-)           (-)           (-)           (-)           (-)           (-)    
        1       2       1   1.00000E+00             2   0.00000E+00   0.00000E+00   5.00000E+00   5.00002E-02   5.00000E+00   5.00002E-02             T             F   0.00000E+00   0.00000E+00   0.00000E+00   0.00000E+00   0.00000E+00   0.00000E+00   0.00000E+00   0.00000E+00   0.00000E+00   0.00000E+00   0.00000E+00   1.00000E+00   0.00000E+00   0.00000E+00   0.00000E+00   0.00000E+00   0.00000E+00   0.00000E+00   0.00000E+00   0.00000E+00   1.00000E+00



Requested Member Outputs


   Label         Xi          Yi          Zi       MemberID    StartXi     StartYi     StartZi      EndXi       EndYi       EndZi        Loc    
    (-)          (m)         (m)         (m)        (-)         (m)         (m)         (m)         (m)         (m)         (m)         (-)    



 Requested Joint Outputs


   Label         Xi          Yi          Zi      InpJointID
    (-)          (m)         (m)         (m)        (-)    

This summary file was closed on 21-Sep-2022 at 11:50:56.

